 This run of the CFX Release 19.1 Solver started at 11:08:50 on 05 Dec
 2018 by user jc2182 on ENPC-LAB124 (intel_xeon64.sse2_winnt) using the
 command:
 
  "C:\Program Files\ANSYS Inc\v191\CFX\bin\perllib\cfx5solve.pl" -batch
    -ccl runInput.ccl -fullname "Fluid Flow CFX_001"
 
 Release 19.1
 
  Point Releases and Patches installed:
  ANSYS, Inc. Products Release 19.1
  SpaceClaim Release 19.1
  Autodyn Release 19.1
  LS-DYNA Release 19.1
  CFD-Post only Release 19.1
  CFX (includes CFD-Post) Release 19.1
  Chemkin Release 19.1
  EnSight Release 19.1
  FENSAP-ICE Release 19.1
  Fluent (includes CFD-Post) Release 19.1
  Forte Release 19.1
  Polyflow (includes CFD-Post) Release 19.1
  TurboGrid Release 19.1
  ICEM CFD Release 19.1
  Customization Files for User Programmable Features Release 19.1
  Mechanical Products Release 19.1
  Icepak (includes CFD-Post) Release 19.1
  Remote Solve Manager Standalone Services Release 19.1
  ACIS Geometry Interface Release 19.1
  Catia, Version 5 Geometry Interface Release 19.1
  NX Geometry Interface Release 19.1
  Parasolid Geometry Interface  Release 19.1
  ANSYS, Inc. License Manager Release 19.1
 
 Setting up CFX Solver run ...
 
 
 +--------------------------------------------------------------------+
 |                                                                    |
 |                    CFX Command Language for Run                    |
 |                                                                    |
 +--------------------------------------------------------------------+
 
 LIBRARY:
   CEL:
     EXPRESSIONS:
       inMassFlow = 1500 [kg s^-1]
     END
   END
   MATERIAL: Water
     Material Description = Water (liquid)
     Material Group = Water Data, Constant Property Liquids
     Option = Pure Substance
     Thermodynamic State = Liquid
     PROPERTIES:
       Option = General Material
       EQUATION OF STATE:
         Density = 997.0 [kg m^-3]
         Molar Mass = 18.02 [kg kmol^-1]
         Option = Value
       END
       SPECIFIC HEAT CAPACITY:
         Option = Value
         Specific Heat Capacity = 4181.7 [J kg^-1 K^-1]
         Specific Heat Type = Constant Pressure
       END
       REFERENCE STATE:
         Option = Specified Point
         Reference Pressure = 1 [atm]
         Reference Specific Enthalpy = 0.0 [J/kg]
         Reference Specific Entropy = 0.0 [J/kg/K]
         Reference Temperature = 25 [C]
       END
       DYNAMIC VISCOSITY:
         Dynamic Viscosity = 8.899E-4 [kg m^-1 s^-1]
         Option = Value
       END
       THERMAL CONDUCTIVITY:
         Option = Value
         Thermal Conductivity = 0.6069 [W m^-1 K^-1]
       END
       ABSORPTION COEFFICIENT:
         Absorption Coefficient = 1.0 [m^-1]
         Option = Value
       END
       SCATTERING COEFFICIENT:
         Option = Value
         Scattering Coefficient = 0.0 [m^-1]
       END
       REFRACTIVE INDEX:
         Option = Value
         Refractive Index = 1.0 [m m^-1]
       END
       THERMAL EXPANSIVITY:
         Option = Value
         Thermal Expansivity = 2.57E-04 [K^-1]
       END
     END
   END
 END
 FLOW: Flow Analysis 1
   SOLUTION UNITS:
     Angle Units = [rad]
     Length Units = [m]
     Mass Units = [kg]
     Solid Angle Units = [sr]
     Temperature Units = [K]
     Time Units = [s]
   END
   ANALYSIS TYPE:
     Option = Steady State
     EXTERNAL SOLVER COUPLING:
       Option = None
     END
   END
   DOMAIN: Default Domain
     Coord Frame = Coord 0
     Domain Type = Fluid
     Location = B17
     BOUNDARY: Default Domain Default
       Boundary Type = WALL
       Location = F12.17,F14.17,F16.17,F19.17,F20.17,F21.17
       BOUNDARY CONDITIONS:
         HEAT TRANSFER:
           Option = Adiabatic
         END
         MASS AND MOMENTUM:
           Option = No Slip Wall
         END
         WALL ROUGHNESS:
           Option = Smooth Wall
         END
       END
     END
     BOUNDARY: in1
       Boundary Type = INLET
       Location = in1
       BOUNDARY CONDITIONS:
         FLOW DIRECTION:
           Option = Normal to Boundary Condition
         END
         FLOW REGIME:
           Option = Subsonic
         END
         HEAT TRANSFER:
           Option = Static Temperature
           Static Temperature = 315 [K]
         END
         MASS AND MOMENTUM:
           Mass Flow Rate = inMassFlow
           Mass Flow Rate Area = As Specified
           Option = Mass Flow Rate
         END
         TURBULENCE:
           Option = Medium Intensity and Eddy Viscosity Ratio
         END
       END
     END
     BOUNDARY: in2
       Boundary Type = INLET
       Location = in2
       BOUNDARY CONDITIONS:
         FLOW DIRECTION:
           Option = Normal to Boundary Condition
         END
         FLOW REGIME:
           Option = Subsonic
         END
         HEAT TRANSFER:
           Option = Static Temperature
           Static Temperature = 285 [K]
         END
         MASS AND MOMENTUM:
           Mass Flow Rate = inMassFlow
           Mass Flow Rate Area = As Specified
           Option = Mass Flow Rate
         END
         TURBULENCE:
           Option = Medium Intensity and Eddy Viscosity Ratio
         END
       END
     END
     BOUNDARY: out
       Boundary Type = OUTLET
       Location = out
       BOUNDARY CONDITIONS:
         FLOW REGIME:
           Option = Subsonic
         END
         MASS AND MOMENTUM:
           Option = Static Pressure
           Relative Pressure = 0 [Pa]
         END
       END
     END
     DOMAIN MODELS:
       BUOYANCY MODEL:
         Option = Non Buoyant
       END
       DOMAIN MOTION:
         Option = Stationary
       END
       MESH DEFORMATION:
         Option = None
       END
       REFERENCE PRESSURE:
         Reference Pressure = 1 [atm]
       END
     END
     FLUID DEFINITION: Fluid 1
       Material = Water
       Option = Material Library
       MORPHOLOGY:
         Option = Continuous Fluid
       END
     END
     FLUID MODELS:
       COMBUSTION MODEL:
         Option = None
       END
       HEAT TRANSFER MODEL:
         Option = Thermal Energy
       END
       THERMAL RADIATION MODEL:
         Option = None
       END
       TURBULENCE MODEL:
         Option = k epsilon
       END
       TURBULENT WALL FUNCTIONS:
         Option = Scalable
       END
     END
   END
   OUTPUT CONTROL:
     RESULTS:
       File Compression Level = Default
       Option = Standard
     END
   END
   SOLVER CONTROL:
     Turbulence Numerics = High Resolution
     ADVECTION SCHEME:
       Option = High Resolution
     END
     CONVERGENCE CONTROL:
       Length Scale Option = Conservative
       Maximum Number of Iterations = 100
       Minimum Number of Iterations = 5
       Timescale Control = Auto Timescale
       Timescale Factor = 1.0
     END
     CONVERGENCE CRITERIA:
       Residual Target = 1.E-4
       Residual Type = RMS
     END
     DYNAMIC MODEL CONTROL:
       Global Dynamic Model Control = On
     END
   END
 END
 COMMAND FILE:
   Version = 19.1
   Results Version = 19.1
 END
 PARAMETERIZATION:
   INPUT FIELD: inMassFlow
     Expression Name = inMassFlow
     Method = Expression
   END
 END
 SIMULATION CONTROL:
   EXECUTION CONTROL:
     EXECUTABLE SELECTION:
       Double Precision = No
       Large Problem = No
     END
     INTERPOLATOR STEP CONTROL:
       Runtime Priority = Standard
       MEMORY CONTROL:
         Memory Allocation Factor = 1.0
       END
     END
     PARALLEL HOST LIBRARY:
       HOST DEFINITION: enpclab124
         Remote Host Name = ENPC-LAB124
         Host Architecture String = winnt-amd64
         Installation Root = C:\Program Files\ANSYS Inc\v%v\CFX
       END
     END
     PARTITIONER STEP CONTROL:
       Multidomain Option = Automatic
       Runtime Priority = Standard
       MEMORY CONTROL:
         Memory Allocation Factor = 1.0
       END
       PARTITION SMOOTHING:
         Maximum Partition Smoothing Sweeps = 100
         Option = Smooth
       END
       PARTITIONING TYPE:
         MeTiS Type = k-way
         Option = MeTiS
         Partition Size Rule = Automatic
       END
     END
     RUN DEFINITION:
       Run Mode = Full
       Solver Input File = Fluid Flow CFX.def
       Solver Results File = \
         H:/dos/CFD/CW/CFD-Static-Mixer/StaticMixerDX_pending/dp1_CFX_Solution\
         /Fluid Flow CFX_001.res
     END
     SOLVER STEP CONTROL:
       Runtime Priority = Standard
       MEMORY CONTROL:
         Memory Allocation Factor = 1.0
       END
       PARALLEL ENVIRONMENT:
         Number of Processes = 1
         Start Method = Serial
       END
     END
   END
 END
 
 
 +--------------------------------------------------------------------+
 |                                                                    |
 |                               Solver                               |
 |                                                                    |
 +--------------------------------------------------------------------+
 



 +--------------------------------------------------------------------+
 |                                                                    |
 |                       ANSYS(R) CFX(R) Solver                       |
 |                                                                    |
 | Release 19.1                                                       |
 | Build 19.1 2018-04-17T13:27:50.069000                              |
 | Tue Apr 17 15:02:11 GMTDT 2018                                     |
 |                                                                    |
 |                        Executable Attributes                       |
 |                                                                    |
 |           single-64bit-int32-archfort-optimised-std-lcomp          |
 |                                                                    |
 | (C) 1996-2018 ANSYS, Inc.                                          |
 |                                                                    |
 | All rights reserved. Unauthorized use, distribution or duplication |
 | is prohibited. This product is subject to U.S. laws governing      |
 | export and re-export. For full Legal Notice, see documentation.    |
 +--------------------------------------------------------------------+




 +--------------------------------------------------------------------+
 |                  Job Information at Start of Run                   |
 +--------------------------------------------------------------------+

 Run mode:       serial run

 Host computer:  ENPC-LAB124 (PID:13532)

 Job started:    Wed Dec  5 11:08:54 2018

 +--------------------------------------------------------------------+
 |                        License Information                         |
 +--------------------------------------------------------------------+
 
 License Cap:    ANSYS CFX Solver (Max 128K Nodes)
 License ID:     VIGO_campus_bath_ac_uk-SYSTEM-1456-391557


 +--------------------------------------------------------------------+
 |        Memory Allocated for Run  (Actual usage may be less)        |
 +--------------------------------------------------------------------+

           | Real       | Integer    | Character | Logical  | Double
 ----------+------------+------------+-----------+----------+----------
 Mwords    |      15.06 |       3.35 |      7.26 |     0.12 |     0.45
 Mbytes    |      57.43 |      12.79 |      6.93 |     0.46 |     3.44
 ----------+------------+------------+-----------+----------+----------


 +--------------------------------------------------------------------+
 |                  Host Memory Information (Mbytes)                  |
 +--------------------------------------------------------------------+
 |          Host           |     System     |   Allocated    |   %    |
 +-------------------------+----------------+----------------+--------+
 | ENPC-LAB124             |     16240.97   |        81.04   |   0.50 |
 +-------------------------+----------------+----------------+--------+


 +--------------------------------------------------------------------+
 |                     ****** Notice ******                           |
 | The Wall Heat Transfer Coefficient written to the results file for |
 | any turbulent phase with heat transfer is based on the turbulent   |
 | wall function coefficient. It is consistent with the Wall Heat Flux|
 | the wall temperature, and the Wall Adjacent Temperature            |
 | (near-wall temperature).  If you would like it to be based on a    |
 | user-specified bulk temperature instead, please set the expert     |
 | parameter "tbulk for htc = <value>".                               |
 +--------------------------------------------------------------------+

 +--------------------------------------------------------------------+
 |                      Topology Simplification                       |
 +--------------------------------------------------------------------+

 +--------------------------------------------------------------------+
 |                       ****** Warning ******                        |
 |                                                                    |
 | Topology simplification is activated with the following            |
 | restrictions:                                                      |
 |                                                                    |
 | - Mesh regions referenced only within User Fortran and NOT         |
 |   in the command file will cause the solver to stop.               |
 | - The solver will stop during any "Edit Run in Progress" step      |
 |   if new 2D regions are referenced.                                |
 +--------------------------------------------------------------------+

 +--------------------------------------------------------------------+
 |                          Mesh Statistics                           |
 +--------------------------------------------------------------------+
 | Domain Name          | Orthog. Angle | Exp. Factor  | Aspect Ratio |
 +----------------------+---------------+--------------+--------------+
 |                      | Minimum [deg] |   Maximum    |    Maximum   |
 +----------------------+---------------+--------------+--------------+
 | Default Domain       |       30.4 ok |        13 ok |        22 OK |
 +----------------------+---------------+--------------+--------------+
 |                      |  %!  %ok  %OK | %!  %ok  %OK | %!  %ok  %OK |
 +----------------------+---------------+--------------+--------------+
 | Default Domain       |   0    2   98 |  0    1   99 |  0    0  100 |
 +----------------------+---------------+--------------+--------------+

 Domain Name : Default Domain

     Total Number of Nodes                                =       15627

     Total Number of Elements                             =       49164
         Total Number of Tetrahedrons                     =       31179
         Total Number of Prisms                           =       17985

     Total Number of Faces                                =        4877

 +--------------------------------------------------------------------+
 |                     Average Scale Information                      |
 +--------------------------------------------------------------------+

 Domain Name : Default Domain
     Global Length                                         = 3.2195E+00
     Minimum Extent                                        = 4.0000E+00
     Maximum Extent                                        = 6.0000E+00
     Density                                               = 9.9700E+02
     Dynamic Viscosity                                     = 8.8990E-04
     Velocity                                              = 6.1433E-01
     Advection Time                                        = 5.2406E+00
     Reynolds Number                                       = 2.2158E+06
     Thermal Conductivity                                  = 6.0690E-01
     Specific Heat Capacity at Constant Pressure           = 4.1817E+03
     Prandtl Number                                        = 6.1316E+00

 +--------------------------------------------------------------------+
 |                Checking for Isolated Fluid Regions                 |
 +--------------------------------------------------------------------+
 
 No isolated fluid regions were found.

 +--------------------------------------------------------------------+
 |              The Equations Solved in This Calculation              |
 +--------------------------------------------------------------------+

 Subsystem : Momentum and Mass

   U-Mom
   V-Mom
   W-Mom
   P-Mass

 Subsystem : Heat Transfer

   H-Energy

 Subsystem : TurbKE and Diss.K

   K-TurbKE
   E-Diss.K
                   
 CFD Solver started: Wed Dec  5 11:08:57 2018


 +--------------------------------------------------------------------+
 |                       Convergence History                          |
 +--------------------------------------------------------------------+

 ======================================================================
 |                        Timescale Information                       |
 ----------------------------------------------------------------------
 |       Equation       |         Type          |      Timescale      |
 +----------------------+-----------------------+---------------------+
 | U-Mom                | Auto Timescale        |     2.50326E+00     |
 | V-Mom                | Auto Timescale        |     2.50326E+00     |
 | W-Mom                | Auto Timescale        |     2.50326E+00     |
 +----------------------+-----------------------+---------------------+
 | H-Energy             | Auto Timescale        |     2.50326E+00     |
 +----------------------+-----------------------+---------------------+
 | K-TurbKE             | Auto Timescale        |     2.50326E+00     |
 | E-Diss.K             | Auto Timescale        |     2.50326E+00     |
 +----------------------+-----------------------+---------------------+

 ======================================================================
 OUTER LOOP ITERATION =    1                    CPU SECONDS = 3.631E+00
 ----------------------------------------------------------------------
 |       Equation       | Rate | RMS Res | Max Res |  Linear Solution |
 +----------------------+------+---------+---------+------------------+
 | U-Mom                | 0.00 | 2.5E-05 | 2.7E-04 |       8.4E+00  ok|
 | V-Mom                | 0.00 | 4.6E-02 | 4.4E-01 |       6.2E-03  OK|
 | W-Mom                | 0.00 | 9.7E-03 | 5.4E-02 |       2.7E-02  OK|
 | P-Mass               | 0.00 | 1.1E-02 | 1.2E-01 |  9.6  6.2E-02  OK|
 +----------------------+------+---------+---------+------------------+
 | H-Energy             | 0.00 | 5.8E-02 | 5.0E-01 |  5.6  3.5E-02  OK|
 +----------------------+------+---------+---------+------------------+
 | K-TurbKE             | 0.00 | 1.9E-01 | 1.0E+00 |  5.6  1.4E-03  OK|
 | E-Diss.K             | 0.00 | 1.7E-01 | 1.0E+00 |  7.8  9.5E-04  OK|
 +----------------------+------+---------+---------+------------------+

 ======================================================================
 OUTER LOOP ITERATION =    2                    CPU SECONDS = 4.228E+00
 ----------------------------------------------------------------------
 |       Equation       | Rate | RMS Res | Max Res |  Linear Solution |
 +----------------------+------+---------+---------+------------------+
 | U-Mom                |99.99 | 6.6E-03 | 5.9E-02 |       7.0E-02  OK|
 | V-Mom                | 0.43 | 2.0E-02 | 2.0E-01 |       2.0E-02  OK|
 | W-Mom                | 1.64 | 1.6E-02 | 7.5E-02 |       2.7E-02  OK|
 | P-Mass               | 0.36 | 4.1E-03 | 8.4E-02 |  9.6  9.1E-02  OK|
 +----------------------+------+---------+---------+------------------+
 | H-Energy             | 0.26 | 1.5E-02 | 7.4E-02 |  5.6  5.7E-02  OK|
 +----------------------+------+---------+---------+------------------+
 | K-TurbKE             | 0.47 | 8.8E-02 | 3.9E-01 |  5.6  2.6E-06  OK|
 | E-Diss.K             | 1.20 | 2.0E-01 | 1.0E+00 |  7.7  2.5E-08  OK|
 +----------------------+------+---------+---------+------------------+

 ======================================================================
 OUTER LOOP ITERATION =    3                    CPU SECONDS = 4.750E+00
 ----------------------------------------------------------------------
 |       Equation       | Rate | RMS Res | Max Res |  Linear Solution |
 +----------------------+------+---------+---------+------------------+
 | U-Mom                | 1.00 | 6.6E-03 | 1.3E-01 |       4.9E-02  OK|
 | V-Mom                | 0.64 | 1.3E-02 | 1.2E-01 |       1.5E-02  OK|
 | W-Mom                | 0.63 | 1.0E-02 | 9.1E-02 |       3.8E-02  OK|
 | P-Mass               | 0.65 | 2.7E-03 | 7.2E-02 |  9.6  6.3E-02  OK|
 +----------------------+------+---------+---------+------------------+
 | H-Energy             | 1.18 | 1.8E-02 | 1.2E-01 |  5.5  5.9E-02  OK|
 +----------------------+------+---------+---------+------------------+
 | K-TurbKE             | 0.22 | 1.9E-02 | 2.5E-01 |  5.5  7.5E-05  OK|
 | E-Diss.K             | 0.19 | 3.8E-02 | 8.2E-01 |  7.7  4.4E-07  OK|
 +----------------------+------+---------+---------+------------------+

 ======================================================================
 OUTER LOOP ITERATION =    4                    CPU SECONDS = 5.275E+00
 ----------------------------------------------------------------------
 |       Equation       | Rate | RMS Res | Max Res |  Linear Solution |
 +----------------------+------+---------+---------+------------------+
 | U-Mom                | 1.03 | 6.8E-03 | 1.2E-01 |       2.1E-02  OK|
 | V-Mom                | 0.92 | 1.2E-02 | 1.3E-01 |       1.4E-02  OK|
 | W-Mom                | 0.57 | 5.7E-03 | 7.4E-02 |       2.4E-02  OK|
 | P-Mass               | 0.51 | 1.4E-03 | 3.8E-02 |  9.6  4.2E-02  OK|
 +----------------------+------+---------+---------+------------------+
 | H-Energy             | 0.99 | 1.7E-02 | 1.5E-01 |  5.5  6.9E-02  OK|
 +----------------------+------+---------+---------+------------------+
 | K-TurbKE             | 0.47 | 9.1E-03 | 1.7E-01 |  5.5  1.6E-04  OK|
 | E-Diss.K             | 0.34 | 1.3E-02 | 3.4E-01 |  7.7  4.0E-06  OK|
 +----------------------+------+---------+---------+------------------+

 ======================================================================
 OUTER LOOP ITERATION =    5                    CPU SECONDS = 5.808E+00
 ----------------------------------------------------------------------
 |       Equation       | Rate | RMS Res | Max Res |  Linear Solution |
 +----------------------+------+---------+---------+------------------+
 | U-Mom                | 0.79 | 5.4E-03 | 7.9E-02 |       9.8E-03  OK|
 | V-Mom                | 0.84 | 9.7E-03 | 1.0E-01 |       5.0E-03  OK|
 | W-Mom                | 0.59 | 3.4E-03 | 3.3E-02 |       3.3E-02  OK|
 | P-Mass               | 0.65 | 8.8E-04 | 2.1E-02 | 13.8  1.9E-02  OK|
 +----------------------+------+---------+---------+------------------+
 | H-Energy             | 1.00 | 1.8E-02 | 1.5E-01 |  5.5  9.3E-02  OK|
 +----------------------+------+---------+---------+------------------+
 | K-TurbKE             | 0.70 | 6.4E-03 | 1.2E-01 |  5.6  1.9E-04  OK|
 | E-Diss.K             | 0.71 | 9.1E-03 | 2.7E-01 |  7.7  7.6E-06  OK|
 +----------------------+------+---------+---------+------------------+

 ======================================================================
 |                        Timescale Information                       |
 ----------------------------------------------------------------------
 |       Equation       |         Type          |      Timescale      |
 +----------------------+-----------------------+---------------------+
 | U-Mom                | Auto Timescale        |     4.95936E-01     |
 | V-Mom                | Auto Timescale        |     4.95936E-01     |
 | W-Mom                | Auto Timescale        |     4.95936E-01     |
 +----------------------+-----------------------+---------------------+
 | H-Energy             | Auto Timescale        |     4.95936E-01     |
 +----------------------+-----------------------+---------------------+
 | K-TurbKE             | Auto Timescale        |     4.95936E-01     |
 | E-Diss.K             | Auto Timescale        |     4.95936E-01     |
 +----------------------+-----------------------+---------------------+

 ======================================================================
 OUTER LOOP ITERATION =    6                    CPU SECONDS = 6.360E+00
 ----------------------------------------------------------------------
 |       Equation       | Rate | RMS Res | Max Res |  Linear Solution |
 +----------------------+------+---------+---------+------------------+
 | U-Mom                | 0.80 | 4.3E-03 | 5.4E-02 |       1.7E-02  OK|
 | V-Mom                | 0.68 | 6.7E-03 | 5.2E-02 |       9.8E-03  OK|
 | W-Mom                | 0.74 | 2.5E-03 | 3.6E-02 |       3.2E-02  OK|
 | P-Mass               | 0.77 | 6.7E-04 | 1.5E-02 |  9.6  9.6E-02  OK|
 +----------------------+------+---------+---------+------------------+
 | H-Energy             | 0.70 | 1.2E-02 | 1.1E-01 |  5.6  1.2E-02  OK|
 +----------------------+------+---------+---------+------------------+
 | K-TurbKE             | 0.67 | 4.2E-03 | 8.1E-02 |  5.6  3.7E-04  OK|
 | E-Diss.K             | 0.55 | 5.0E-03 | 1.5E-01 |  7.7  1.9E-05  OK|
 +----------------------+------+---------+---------+------------------+

 ======================================================================
 OUTER LOOP ITERATION =    7                    CPU SECONDS = 6.888E+00
 ----------------------------------------------------------------------
 |       Equation       | Rate | RMS Res | Max Res |  Linear Solution |
 +----------------------+------+---------+---------+------------------+
 | U-Mom                | 0.88 | 3.8E-03 | 6.1E-02 |       1.3E-02  OK|
 | V-Mom                | 0.67 | 4.5E-03 | 4.7E-02 |       9.6E-03  OK|
 | W-Mom                | 1.04 | 2.6E-03 | 2.6E-02 |       2.2E-02  OK|
 | P-Mass               | 0.71 | 4.8E-04 | 7.0E-03 |  9.6  6.8E-02  OK|
 +----------------------+------+---------+---------+------------------+
 | H-Energy             | 1.02 | 1.2E-02 | 1.4E-01 |  5.5  1.3E-02  OK|
 +----------------------+------+---------+---------+------------------+
 | K-TurbKE             | 0.97 | 4.1E-03 | 1.2E-01 |  5.6  4.3E-04  OK|
 | E-Diss.K             | 0.72 | 3.7E-03 | 1.1E-01 |  7.7  1.1E-05  OK|
 +----------------------+------+---------+---------+------------------+

 ======================================================================
 OUTER LOOP ITERATION =    8                    CPU SECONDS = 7.411E+00
 ----------------------------------------------------------------------
 |       Equation       | Rate | RMS Res | Max Res |  Linear Solution |
 +----------------------+------+---------+---------+------------------+
 | U-Mom                | 0.96 | 3.6E-03 | 5.7E-02 |       1.0E-02  OK|
 | V-Mom                | 0.90 | 4.0E-03 | 5.0E-02 |       8.1E-03  OK|
 | W-Mom                | 0.96 | 2.5E-03 | 2.0E-02 |       1.6E-02  OK|
 | P-Mass               | 0.77 | 3.7E-04 | 5.5E-03 |  9.6  5.8E-02  OK|
 +----------------------+------+---------+---------+------------------+
 | H-Energy             | 1.00 | 1.2E-02 | 1.4E-01 |  5.5  1.3E-02  OK|
 +----------------------+------+---------+---------+------------------+
 | K-TurbKE             | 1.39 | 5.7E-03 | 2.6E-01 |  5.5  7.5E-04  OK|
 | E-Diss.K             | 0.71 | 2.6E-03 | 7.9E-02 |  7.7  2.0E-05  OK|
 +----------------------+------+---------+---------+------------------+

 ======================================================================
 OUTER LOOP ITERATION =    9                    CPU SECONDS = 7.938E+00
 ----------------------------------------------------------------------
 |       Equation       | Rate | RMS Res | Max Res |  Linear Solution |
 +----------------------+------+---------+---------+------------------+
 | U-Mom                | 0.94 | 3.4E-03 | 5.3E-02 |       9.9E-03  OK|
 | V-Mom                | 0.94 | 3.8E-03 | 4.5E-02 |       7.9E-03  OK|
 | W-Mom                | 0.92 | 2.3E-03 | 2.0E-02 |       1.4E-02  OK|
 | P-Mass               | 0.80 | 3.0E-04 | 4.5E-03 |  9.6  6.4E-02  OK|
 +----------------------+------+---------+---------+------------------+
 | H-Energy             | 1.01 | 1.3E-02 | 1.6E-01 |  5.6  1.2E-02  OK|
 +----------------------+------+---------+---------+------------------+
 | K-TurbKE             | 1.88 | 1.1E-02 | 7.4E-01 |  5.5  7.9E-04  OK|
 | E-Diss.K             | 0.71 | 1.9E-03 | 5.7E-02 |  7.7  2.9E-05  OK|
 +----------------------+------+---------+---------+------------------+

 ======================================================================
 OUTER LOOP ITERATION =   10                    CPU SECONDS = 8.455E+00
 ----------------------------------------------------------------------
 |       Equation       | Rate | RMS Res | Max Res |  Linear Solution |
 +----------------------+------+---------+---------+------------------+
 | U-Mom                | 0.93 | 3.2E-03 | 5.2E-02 |       1.0E-02  OK|
 | V-Mom                | 0.94 | 3.5E-03 | 4.1E-02 |       8.3E-03  OK|
 | W-Mom                | 0.92 | 2.1E-03 | 2.1E-02 |       1.3E-02  OK|
 | P-Mass               | 0.86 | 2.5E-04 | 3.8E-03 |  9.6  7.4E-02  OK|
 +----------------------+------+---------+---------+------------------+
 | H-Energy             | 1.01 | 1.3E-02 | 1.8E-01 |  5.5  1.3E-02  OK|
 +----------------------+------+---------+---------+------------------+
 | K-TurbKE             | 1.15 | 1.2E-02 | 4.3E-01 |  5.5  8.1E-04  OK|
 | E-Diss.K             | 0.88 | 1.6E-03 | 5.0E-02 |  7.7  6.3E-05  OK|
 +----------------------+------+---------+---------+------------------+

 ======================================================================
 |                        Timescale Information                       |
 ----------------------------------------------------------------------
 |       Equation       |         Type          |      Timescale      |
 +----------------------+-----------------------+---------------------+
 | U-Mom                | Auto Timescale        |     4.95936E-01     |
 | V-Mom                | Auto Timescale        |     4.95936E-01     |
 | W-Mom                | Auto Timescale        |     4.95936E-01     |
 +----------------------+-----------------------+---------------------+
 | H-Energy             | Auto Timescale        |     4.95936E-01     |
 +----------------------+-----------------------+---------------------+
 | K-TurbKE             | Auto Timescale        |     4.95936E-01     |
 | E-Diss.K             | Auto Timescale        |     4.95936E-01     |
 +----------------------+-----------------------+---------------------+

 ======================================================================
 OUTER LOOP ITERATION =   11                    CPU SECONDS = 8.990E+00
 ----------------------------------------------------------------------
 |       Equation       | Rate | RMS Res | Max Res |  Linear Solution |
 +----------------------+------+---------+---------+------------------+
 | U-Mom                | 0.95 | 3.0E-03 | 5.2E-02 |       1.1E-02  OK|
 | V-Mom                | 0.94 | 3.3E-03 | 4.0E-02 |       8.8E-03  OK|
 | W-Mom                | 0.90 | 1.9E-03 | 2.1E-02 |       1.4E-02  OK|
 | P-Mass               | 0.90 | 2.3E-04 | 3.4E-03 |  9.6  7.6E-02  OK|
 +----------------------+------+---------+---------+------------------+
 | H-Energy             | 1.02 | 1.3E-02 | 1.8E-01 |  5.6  1.3E-02  OK|
 +----------------------+------+---------+---------+------------------+
 | K-TurbKE             | 0.88 | 1.1E-02 | 4.7E-01 |  5.6  1.8E-03  OK|
 | E-Diss.K             | 2.79 | 4.5E-03 | 3.0E-01 |  7.7  1.3E-04  OK|
 +----------------------+------+---------+---------+------------------+

 ======================================================================
 OUTER LOOP ITERATION =   12                    CPU SECONDS = 9.513E+00
 ----------------------------------------------------------------------
 |       Equation       | Rate | RMS Res | Max Res |  Linear Solution |
 +----------------------+------+---------+---------+------------------+
 | U-Mom                | 0.97 | 2.9E-03 | 4.9E-02 |       1.1E-02  OK|
 | V-Mom                | 0.96 | 3.2E-03 | 4.1E-02 |       9.3E-03  OK|
 | W-Mom                | 0.89 | 1.7E-03 | 2.9E-02 |       1.5E-02  OK|
 | P-Mass               | 0.94 | 2.1E-04 | 3.4E-03 |  9.6  7.2E-02  OK|
 +----------------------+------+---------+---------+------------------+
 | H-Energy             | 1.02 | 1.3E-02 | 1.8E-01 |  5.5  1.3E-02  OK|
 +----------------------+------+---------+---------+------------------+
 | K-TurbKE             | 0.82 | 9.0E-03 | 2.5E-01 |  5.5  4.7E-03  OK|
 | E-Diss.K             | 2.29 | 1.0E-02 | 6.9E-01 |  7.7  4.2E-04  OK|
 +----------------------+------+---------+---------+------------------+

 ======================================================================
 OUTER LOOP ITERATION =   13                    CPU SECONDS = 1.006E+01
 ----------------------------------------------------------------------
 |       Equation       | Rate | RMS Res | Max Res |  Linear Solution |
 +----------------------+------+---------+---------+------------------+
 | U-Mom                | 0.97 | 2.8E-03 | 4.1E-02 |       1.2E-02  OK|
 | V-Mom                | 0.99 | 3.1E-03 | 3.2E-02 |       9.8E-03  OK|
 | W-Mom                | 0.92 | 1.6E-03 | 2.3E-02 |       1.7E-02  OK|
 | P-Mass               | 0.97 | 2.1E-04 | 3.4E-03 |  9.6  6.7E-02  OK|
 +----------------------+------+---------+---------+------------------+
 | H-Energy             | 1.01 | 1.3E-02 | 2.1E-01 |  5.6  1.3E-02  OK|
 +----------------------+------+---------+---------+------------------+
 | K-TurbKE             | 1.02 | 9.2E-03 | 2.2E-01 |  5.6  4.8E-03  OK|
 | E-Diss.K             | 0.88 | 9.2E-03 | 5.1E-01 |  7.6  7.2E-04  OK|
 +----------------------+------+---------+---------+------------------+

 ======================================================================
 OUTER LOOP ITERATION =   14                    CPU SECONDS = 1.059E+01
 ----------------------------------------------------------------------
 |       Equation       | Rate | RMS Res | Max Res |  Linear Solution |
 +----------------------+------+---------+---------+------------------+
 | U-Mom                | 0.96 | 2.7E-03 | 3.3E-02 |       1.3E-02  OK|
 | V-Mom                | 0.98 | 3.1E-03 | 2.8E-02 |       1.1E-02  OK|
 | W-Mom                | 0.99 | 1.5E-03 | 1.9E-02 |       1.8E-02  OK|
 | P-Mass               | 0.98 | 2.0E-04 | 3.5E-03 |  9.6  6.3E-02  OK|
 +----------------------+------+---------+---------+------------------+
 | H-Energy             | 0.98 | 1.3E-02 | 1.8E-01 |  5.6  1.4E-02  OK|
 +----------------------+------+---------+---------+------------------+
 | K-TurbKE             | 0.89 | 8.2E-03 | 1.4E-01 |  5.6  3.7E-03  OK|
 | E-Diss.K             | 0.72 | 6.6E-03 | 3.1E-01 |  7.6  6.2E-04  OK|
 +----------------------+------+---------+---------+------------------+

 ======================================================================
 OUTER LOOP ITERATION =   15                    CPU SECONDS = 1.113E+01
 ----------------------------------------------------------------------
 |       Equation       | Rate | RMS Res | Max Res |  Linear Solution |
 +----------------------+------+---------+---------+------------------+
 | U-Mom                | 0.96 | 2.6E-03 | 2.6E-02 |       1.4E-02  OK|
 | V-Mom                | 0.98 | 3.0E-03 | 2.7E-02 |       1.1E-02  OK|
 | W-Mom                | 0.95 | 1.5E-03 | 1.8E-02 |       2.1E-02  OK|
 | P-Mass               | 1.00 | 2.0E-04 | 3.5E-03 |  9.6  6.1E-02  OK|
 +----------------------+------+---------+---------+------------------+
 | H-Energy             | 0.96 | 1.3E-02 | 1.9E-01 |  5.6  1.4E-02  OK|
 +----------------------+------+---------+---------+------------------+
 | K-TurbKE             | 0.88 | 7.2E-03 | 1.3E-01 |  5.5  4.1E-03  OK|
 | E-Diss.K             | 0.76 | 5.0E-03 | 1.9E-01 |  7.6  5.6E-04  OK|
 +----------------------+------+---------+---------+------------------+

 ======================================================================
 |                        Timescale Information                       |
 ----------------------------------------------------------------------
 |       Equation       |         Type          |      Timescale      |
 +----------------------+-----------------------+---------------------+
 | U-Mom                | Auto Timescale        |     4.95936E-01     |
 | V-Mom                | Auto Timescale        |     4.95936E-01     |
 | W-Mom                | Auto Timescale        |     4.95936E-01     |
 +----------------------+-----------------------+---------------------+
 | H-Energy             | Auto Timescale        |     4.95936E-01     |
 +----------------------+-----------------------+---------------------+
 | K-TurbKE             | Auto Timescale        |     4.95936E-01     |
 | E-Diss.K             | Auto Timescale        |     4.95936E-01     |
 +----------------------+-----------------------+---------------------+

 ======================================================================
 OUTER LOOP ITERATION =   16                    CPU SECONDS = 1.166E+01
 ----------------------------------------------------------------------
 |       Equation       | Rate | RMS Res | Max Res |  Linear Solution |
 +----------------------+------+---------+---------+------------------+
 | U-Mom                | 0.96 | 2.5E-03 | 2.2E-02 |       1.5E-02  OK|
 | V-Mom                | 0.99 | 3.0E-03 | 3.2E-02 |       1.2E-02  OK|
 | W-Mom                | 0.95 | 1.4E-03 | 1.6E-02 |       2.3E-02  OK|
 | P-Mass               | 0.98 | 2.0E-04 | 3.8E-03 |  9.6  6.1E-02  OK|
 +----------------------+------+---------+---------+------------------+
 | H-Energy             | 0.94 | 1.2E-02 | 2.2E-01 |  5.6  1.4E-02  OK|
 +----------------------+------+---------+---------+------------------+
 | K-TurbKE             | 1.01 | 7.3E-03 | 1.4E-01 |  5.5  4.8E-03  OK|
 | E-Diss.K             | 0.88 | 4.4E-03 | 1.4E-01 |  7.6  6.3E-04  OK|
 +----------------------+------+---------+---------+------------------+

 ======================================================================
 OUTER LOOP ITERATION =   17                    CPU SECONDS = 1.221E+01
 ----------------------------------------------------------------------
 |       Equation       | Rate | RMS Res | Max Res |  Linear Solution |
 +----------------------+------+---------+---------+------------------+
 | U-Mom                | 0.95 | 2.4E-03 | 2.1E-02 |       1.7E-02  OK|
 | V-Mom                | 0.99 | 3.0E-03 | 3.5E-02 |       1.2E-02  OK|
 | W-Mom                | 0.98 | 1.4E-03 | 1.6E-02 |       2.6E-02  OK|
 | P-Mass               | 1.00 | 2.0E-04 | 3.8E-03 |  9.6  6.5E-02  OK|
 +----------------------+------+---------+---------+------------------+
 | H-Energy             | 0.94 | 1.1E-02 | 2.0E-01 |  5.6  1.4E-02  OK|
 +----------------------+------+---------+---------+------------------+
 | K-TurbKE             | 0.96 | 7.0E-03 | 1.3E-01 |  5.5  4.6E-03  OK|
 | E-Diss.K             | 0.89 | 3.9E-03 | 1.6E-01 |  7.6  7.5E-04  OK|
 +----------------------+------+---------+---------+------------------+

 ======================================================================
 OUTER LOOP ITERATION =   18                    CPU SECONDS = 1.274E+01
 ----------------------------------------------------------------------
 |       Equation       | Rate | RMS Res | Max Res |  Linear Solution |
 +----------------------+------+---------+---------+------------------+
 | U-Mom                | 0.95 | 2.3E-03 | 2.0E-02 |       1.8E-02  OK|
 | V-Mom                | 0.99 | 3.0E-03 | 3.7E-02 |       1.3E-02  OK|
 | W-Mom                | 1.02 | 1.4E-03 | 2.2E-02 |       2.9E-02  OK|
 | P-Mass               | 1.03 | 2.0E-04 | 3.7E-03 |  9.6  6.9E-02  OK|
 +----------------------+------+---------+---------+------------------+
 | H-Energy             | 0.95 | 1.0E-02 | 2.1E-01 |  5.5  1.3E-02  OK|
 +----------------------+------+---------+---------+------------------+
 | K-TurbKE             | 1.00 | 7.0E-03 | 1.3E-01 |  5.5  5.1E-03  OK|
 | E-Diss.K             | 0.88 | 3.5E-03 | 1.7E-01 |  7.6  7.5E-04  OK|
 +----------------------+------+---------+---------+------------------+

 ======================================================================
 OUTER LOOP ITERATION =   19                    CPU SECONDS = 1.327E+01
 ----------------------------------------------------------------------
 |       Equation       | Rate | RMS Res | Max Res |  Linear Solution |
 +----------------------+------+---------+---------+------------------+
 | U-Mom                | 0.94 | 2.1E-03 | 1.8E-02 |       1.8E-02  OK|
 | V-Mom                | 0.99 | 2.9E-03 | 3.2E-02 |       1.3E-02  OK|
 | W-Mom                | 1.06 | 1.5E-03 | 3.7E-02 |       3.2E-02  OK|
 | P-Mass               | 1.05 | 2.2E-04 | 3.8E-03 |  9.6  7.5E-02  OK|
 +----------------------+------+---------+---------+------------------+
 | H-Energy             | 0.95 | 9.9E-03 | 1.8E-01 |  5.5  1.4E-02  OK|
 +----------------------+------+---------+---------+------------------+
 | K-TurbKE             | 1.01 | 7.0E-03 | 1.3E-01 |  5.6  4.8E-03  OK|
 | E-Diss.K             | 0.96 | 3.3E-03 | 1.6E-01 |  7.6  7.8E-04  OK|
 +----------------------+------+---------+---------+------------------+

 ======================================================================
 OUTER LOOP ITERATION =   20                    CPU SECONDS = 1.380E+01
 ----------------------------------------------------------------------
 |       Equation       | Rate | RMS Res | Max Res |  Linear Solution |
 +----------------------+------+---------+---------+------------------+
 | U-Mom                | 0.93 | 2.0E-03 | 1.5E-02 |       1.8E-02  OK|
 | V-Mom                | 0.98 | 2.9E-03 | 3.0E-02 |       1.4E-02  OK|
 | W-Mom                | 1.08 | 1.6E-03 | 5.7E-02 |       3.6E-02  OK|
 | P-Mass               | 1.05 | 2.3E-04 | 3.9E-03 |  9.6  7.9E-02  OK|
 +----------------------+------+---------+---------+------------------+
 | H-Energy             | 0.95 | 9.4E-03 | 1.7E-01 |  5.5  1.3E-02  OK|
 +----------------------+------+---------+---------+------------------+
 | K-TurbKE             | 1.03 | 7.3E-03 | 1.5E-01 |  5.5  5.7E-03  OK|
 | E-Diss.K             | 0.98 | 3.2E-03 | 1.5E-01 |  7.6  9.4E-04  OK|
 +----------------------+------+---------+---------+------------------+

 ======================================================================
 |                        Timescale Information                       |
 ----------------------------------------------------------------------
 |       Equation       |         Type          |      Timescale      |
 +----------------------+-----------------------+---------------------+
 | U-Mom                | Auto Timescale        |     4.95936E-01     |
 | V-Mom                | Auto Timescale        |     4.95936E-01     |
 | W-Mom                | Auto Timescale        |     4.95936E-01     |
 +----------------------+-----------------------+---------------------+
 | H-Energy             | Auto Timescale        |     4.95936E-01     |
 +----------------------+-----------------------+---------------------+
 | K-TurbKE             | Auto Timescale        |     4.95936E-01     |
 | E-Diss.K             | Auto Timescale        |     4.95936E-01     |
 +----------------------+-----------------------+---------------------+

 ======================================================================
 OUTER LOOP ITERATION =   21                    CPU SECONDS = 1.432E+01
 ----------------------------------------------------------------------
 |       Equation       | Rate | RMS Res | Max Res |  Linear Solution |
 +----------------------+------+---------+---------+------------------+
 | U-Mom                | 0.92 | 1.8E-03 | 1.4E-02 |       1.8E-02  OK|
 | V-Mom                | 0.97 | 2.8E-03 | 2.4E-02 |       1.5E-02  OK|
 | W-Mom                | 1.00 | 1.6E-03 | 5.1E-02 |       4.0E-02  OK|
 | P-Mass               | 1.06 | 2.4E-04 | 4.5E-03 |  9.6  8.0E-02  OK|
 +----------------------+------+---------+---------+------------------+
 | H-Energy             | 0.94 | 8.8E-03 | 1.4E-01 |  5.5  1.4E-02  OK|
 +----------------------+------+---------+---------+------------------+
 | K-TurbKE             | 1.00 | 7.3E-03 | 1.4E-01 |  5.5  6.5E-03  OK|
 | E-Diss.K             | 1.03 | 3.3E-03 | 1.8E-01 |  7.7  1.1E-03  OK|
 +----------------------+------+---------+---------+------------------+

 ======================================================================
 OUTER LOOP ITERATION =   22                    CPU SECONDS = 1.485E+01
 ----------------------------------------------------------------------
 |       Equation       | Rate | RMS Res | Max Res |  Linear Solution |
 +----------------------+------+---------+---------+------------------+
 | U-Mom                | 0.91 | 1.7E-03 | 1.9E-02 |       1.8E-02  OK|
 | V-Mom                | 0.96 | 2.7E-03 | 1.9E-02 |       1.6E-02  OK|
 | W-Mom                | 0.93 | 1.5E-03 | 4.3E-02 |       4.4E-02  OK|
 | P-Mass               | 1.04 | 2.5E-04 | 4.8E-03 |  9.6  7.8E-02  OK|
 +----------------------+------+---------+---------+------------------+
 | H-Energy             | 0.92 | 8.2E-03 | 1.2E-01 |  5.5  1.4E-02  OK|
 +----------------------+------+---------+---------+------------------+
 | K-TurbKE             | 0.96 | 7.0E-03 | 1.3E-01 |  5.5  7.8E-03  OK|
 | E-Diss.K             | 0.99 | 3.3E-03 | 1.5E-01 |  7.7  1.2E-03  OK|
 +----------------------+------+---------+---------+------------------+

 ======================================================================
 OUTER LOOP ITERATION =   23                    CPU SECONDS = 1.537E+01
 ----------------------------------------------------------------------
 |       Equation       | Rate | RMS Res | Max Res |  Linear Solution |
 +----------------------+------+---------+---------+------------------+
 | U-Mom                | 0.91 | 1.5E-03 | 2.0E-02 |       1.8E-02  OK|
 | V-Mom                | 0.94 | 2.5E-03 | 1.8E-02 |       1.7E-02  OK|
 | W-Mom                | 0.92 | 1.4E-03 | 3.2E-02 |       4.7E-02  OK|
 | P-Mass               | 1.02 | 2.5E-04 | 4.7E-03 |  9.6  7.5E-02  OK|
 +----------------------+------+---------+---------+------------------+
 | H-Energy             | 0.92 | 7.5E-03 | 1.0E-01 |  5.5  1.5E-02  OK|
 +----------------------+------+---------+---------+------------------+
 | K-TurbKE             | 0.95 | 6.6E-03 | 1.1E-01 |  5.5  8.6E-03  OK|
 | E-Diss.K             | 0.99 | 3.3E-03 | 1.3E-01 |  7.7  1.4E-03  OK|
 +----------------------+------+---------+---------+------------------+

 ======================================================================
 OUTER LOOP ITERATION =   24                    CPU SECONDS = 1.590E+01
 ----------------------------------------------------------------------
 |       Equation       | Rate | RMS Res | Max Res |  Linear Solution |
 +----------------------+------+---------+---------+------------------+
 | U-Mom                | 0.92 | 1.4E-03 | 1.6E-02 |       1.8E-02  OK|
 | V-Mom                | 0.93 | 2.3E-03 | 1.5E-02 |       1.8E-02  OK|
 | W-Mom                | 0.91 | 1.3E-03 | 2.0E-02 |       5.0E-02  OK|
 | P-Mass               | 1.00 | 2.5E-04 | 4.3E-03 |  9.6  7.3E-02  OK|
 +----------------------+------+---------+---------+------------------+
 | H-Energy             | 0.90 | 6.8E-03 | 1.1E-01 |  5.5  1.6E-02  OK|
 +----------------------+------+---------+---------+------------------+
 | K-TurbKE             | 0.95 | 6.3E-03 | 9.5E-02 |  5.5  8.6E-03  OK|
 | E-Diss.K             | 1.03 | 3.4E-03 | 1.2E-01 |  7.7  1.5E-03  OK|
 +----------------------+------+---------+---------+------------------+

 ======================================================================
 OUTER LOOP ITERATION =   25                    CPU SECONDS = 1.642E+01
 ----------------------------------------------------------------------
 |       Equation       | Rate | RMS Res | Max Res |  Linear Solution |
 +----------------------+------+---------+---------+------------------+
 | U-Mom                | 0.92 | 1.3E-03 | 8.9E-03 |       1.9E-02  OK|
 | V-Mom                | 0.90 | 2.1E-03 | 1.2E-02 |       1.9E-02  OK|
 | W-Mom                | 0.90 | 1.1E-03 | 1.4E-02 |       5.1E-02  OK|
 | P-Mass               | 0.95 | 2.4E-04 | 3.9E-03 |  9.6  7.2E-02  OK|
 +----------------------+------+---------+---------+------------------+
 | H-Energy             | 0.91 | 6.2E-03 | 7.9E-02 |  5.5  1.8E-02  OK|
 +----------------------+------+---------+---------+------------------+
 | K-TurbKE             | 0.96 | 6.0E-03 | 1.0E-01 |  5.5  9.0E-03  OK|
 | E-Diss.K             | 0.99 | 3.3E-03 | 1.2E-01 |  7.7  1.5E-03  OK|
 +----------------------+------+---------+---------+------------------+

 ======================================================================
 |                        Timescale Information                       |
 ----------------------------------------------------------------------
 |       Equation       |         Type          |      Timescale      |
 +----------------------+-----------------------+---------------------+
 | U-Mom                | Auto Timescale        |     4.95936E-01     |
 | V-Mom                | Auto Timescale        |     4.95936E-01     |
 | W-Mom                | Auto Timescale        |     4.95936E-01     |
 +----------------------+-----------------------+---------------------+
 | H-Energy             | Auto Timescale        |     4.95936E-01     |
 +----------------------+-----------------------+---------------------+
 | K-TurbKE             | Auto Timescale        |     4.95936E-01     |
 | E-Diss.K             | Auto Timescale        |     4.95936E-01     |
 +----------------------+-----------------------+---------------------+

 ======================================================================
 OUTER LOOP ITERATION =   26                    CPU SECONDS = 1.695E+01
 ----------------------------------------------------------------------
 |       Equation       | Rate | RMS Res | Max Res |  Linear Solution |
 +----------------------+------+---------+---------+------------------+
 | U-Mom                | 0.94 | 1.2E-03 | 7.6E-03 |       2.0E-02  OK|
 | V-Mom                | 0.89 | 1.9E-03 | 1.0E-02 |       2.0E-02  OK|
 | W-Mom                | 0.90 | 1.0E-03 | 1.3E-02 |       5.1E-02  OK|
 | P-Mass               | 0.94 | 2.3E-04 | 3.7E-03 |  9.6  7.2E-02  OK|
 +----------------------+------+---------+---------+------------------+
 | H-Energy             | 0.92 | 5.7E-03 | 4.1E-02 |  5.5  1.9E-02  OK|
 +----------------------+------+---------+---------+------------------+
 | K-TurbKE             | 0.93 | 5.6E-03 | 7.5E-02 |  5.5  9.8E-03  OK|
 | E-Diss.K             | 0.82 | 2.7E-03 | 9.1E-02 |  7.7  1.6E-03  OK|
 +----------------------+------+---------+---------+------------------+

 ======================================================================
 OUTER LOOP ITERATION =   27                    CPU SECONDS = 1.748E+01
 ----------------------------------------------------------------------
 |       Equation       | Rate | RMS Res | Max Res |  Linear Solution |
 +----------------------+------+---------+---------+------------------+
 | U-Mom                | 0.96 | 1.1E-03 | 6.3E-03 |       2.1E-02  OK|
 | V-Mom                | 0.89 | 1.7E-03 | 8.5E-03 |       2.1E-02  OK|
 | W-Mom                | 0.91 | 9.4E-04 | 1.4E-02 |       5.1E-02  OK|
 | P-Mass               | 0.93 | 2.1E-04 | 3.5E-03 |  9.6  7.4E-02  OK|
 +----------------------+------+---------+---------+------------------+
 | H-Energy             | 0.94 | 5.4E-03 | 3.4E-02 |  5.5  2.0E-02  OK|
 +----------------------+------+---------+---------+------------------+
 | K-TurbKE             | 0.86 | 4.9E-03 | 5.1E-02 |  5.5  9.0E-03  OK|
 | E-Diss.K             | 0.78 | 2.1E-03 | 7.3E-02 |  7.7  1.8E-03  OK|
 +----------------------+------+---------+---------+------------------+

 ======================================================================
 OUTER LOOP ITERATION =   28                    CPU SECONDS = 1.800E+01
 ----------------------------------------------------------------------
 |       Equation       | Rate | RMS Res | Max Res |  Linear Solution |
 +----------------------+------+---------+---------+------------------+
 | U-Mom                | 0.98 | 1.1E-03 | 6.2E-03 |       2.2E-02  OK|
 | V-Mom                | 0.89 | 1.5E-03 | 6.8E-03 |       2.2E-02  OK|
 | W-Mom                | 0.92 | 8.6E-04 | 1.5E-02 |       4.9E-02  OK|
 | P-Mass               | 0.94 | 2.0E-04 | 3.5E-03 |  9.6  7.5E-02  OK|
 +----------------------+------+---------+---------+------------------+
 | H-Energy             | 0.94 | 5.0E-03 | 3.0E-02 |  5.5  2.1E-02  OK|
 +----------------------+------+---------+---------+------------------+
 | K-TurbKE             | 0.88 | 4.3E-03 | 4.7E-02 |  5.5  8.1E-03  OK|
 | E-Diss.K             | 0.81 | 1.7E-03 | 5.4E-02 |  7.7  1.8E-03  OK|
 +----------------------+------+---------+---------+------------------+

 ======================================================================
 OUTER LOOP ITERATION =   29                    CPU SECONDS = 1.852E+01
 ----------------------------------------------------------------------
 |       Equation       | Rate | RMS Res | Max Res |  Linear Solution |
 +----------------------+------+---------+---------+------------------+
 | U-Mom                | 0.98 | 1.1E-03 | 5.9E-03 |       2.4E-02  OK|
 | V-Mom                | 0.89 | 1.3E-03 | 6.7E-03 |       2.3E-02  OK|
 | W-Mom                | 0.92 | 8.0E-04 | 1.3E-02 |       4.8E-02  OK|
 | P-Mass               | 0.94 | 1.9E-04 | 3.4E-03 |  9.6  7.7E-02  OK|
 +----------------------+------+---------+---------+------------------+
 | H-Energy             | 0.93 | 4.7E-03 | 3.6E-02 |  5.5  2.1E-02  OK|
 +----------------------+------+---------+---------+------------------+
 | K-TurbKE             | 0.90 | 3.9E-03 | 4.8E-02 |  5.5  7.8E-03  OK|
 | E-Diss.K             | 0.90 | 1.6E-03 | 4.6E-02 |  7.7  1.7E-03  OK|
 +----------------------+------+---------+---------+------------------+

 ======================================================================
 OUTER LOOP ITERATION =   30                    CPU SECONDS = 1.905E+01
 ----------------------------------------------------------------------
 |       Equation       | Rate | RMS Res | Max Res |  Linear Solution |
 +----------------------+------+---------+---------+------------------+
 | U-Mom                | 0.97 | 1.1E-03 | 6.2E-03 |       2.5E-02  OK|
 | V-Mom                | 0.89 | 1.2E-03 | 5.6E-03 |       2.4E-02  OK|
 | W-Mom                | 0.92 | 7.4E-04 | 1.1E-02 |       4.8E-02  OK|
 | P-Mass               | 0.94 | 1.7E-04 | 3.2E-03 |  9.6  7.7E-02  OK|
 +----------------------+------+---------+---------+------------------+
 | H-Energy             | 0.92 | 4.3E-03 | 3.4E-02 |  5.5  2.2E-02  OK|
 +----------------------+------+---------+---------+------------------+
 | K-TurbKE             | 0.91 | 3.5E-03 | 3.5E-02 |  5.5  7.9E-03  OK|
 | E-Diss.K             | 0.98 | 1.5E-03 | 4.6E-02 |  7.7  1.6E-03  OK|
 +----------------------+------+---------+---------+------------------+

 ======================================================================
 |                        Timescale Information                       |
 ----------------------------------------------------------------------
 |       Equation       |         Type          |      Timescale      |
 +----------------------+-----------------------+---------------------+
 | U-Mom                | Auto Timescale        |     4.94764E-01     |
 | V-Mom                | Auto Timescale        |     4.94764E-01     |
 | W-Mom                | Auto Timescale        |     4.94764E-01     |
 +----------------------+-----------------------+---------------------+
 | H-Energy             | Auto Timescale        |     4.94764E-01     |
 +----------------------+-----------------------+---------------------+
 | K-TurbKE             | Auto Timescale        |     4.94764E-01     |
 | E-Diss.K             | Auto Timescale        |     4.94764E-01     |
 +----------------------+-----------------------+---------------------+

 ======================================================================
 OUTER LOOP ITERATION =   31                    CPU SECONDS = 1.957E+01
 ----------------------------------------------------------------------
 |       Equation       | Rate | RMS Res | Max Res |  Linear Solution |
 +----------------------+------+---------+---------+------------------+
 | U-Mom                | 0.97 | 1.0E-03 | 5.9E-03 |       2.6E-02  OK|
 | V-Mom                | 0.90 | 1.0E-03 | 5.3E-03 |       2.4E-02  OK|
 | W-Mom                | 0.93 | 6.8E-04 | 9.1E-03 |       4.8E-02  OK|
 | P-Mass               | 0.95 | 1.7E-04 | 2.8E-03 |  9.6  7.8E-02  OK|
 +----------------------+------+---------+---------+------------------+
 | H-Energy             | 0.91 | 3.9E-03 | 3.7E-02 |  5.5  2.2E-02  OK|
 +----------------------+------+---------+---------+------------------+
 | K-TurbKE             | 0.94 | 3.3E-03 | 3.3E-02 |  5.5  8.2E-03  OK|
 | E-Diss.K             | 1.00 | 1.5E-03 | 4.4E-02 |  7.7  1.5E-03  OK|
 +----------------------+------+---------+---------+------------------+

 ======================================================================
 OUTER LOOP ITERATION =   32                    CPU SECONDS = 2.010E+01
 ----------------------------------------------------------------------
 |       Equation       | Rate | RMS Res | Max Res |  Linear Solution |
 +----------------------+------+---------+---------+------------------+
 | U-Mom                | 0.96 | 1.0E-03 | 5.7E-03 |       2.7E-02  OK|
 | V-Mom                | 0.90 | 9.4E-04 | 4.8E-03 |       2.5E-02  OK|
 | W-Mom                | 0.94 | 6.4E-04 | 9.5E-03 |       4.8E-02  OK|
 | P-Mass               | 0.96 | 1.6E-04 | 2.5E-03 |  9.6  7.8E-02  OK|
 +----------------------+------+---------+---------+------------------+
 | H-Energy             | 0.91 | 3.6E-03 | 3.7E-02 |  5.5  2.2E-02  OK|
 +----------------------+------+---------+---------+------------------+
 | K-TurbKE             | 0.97 | 3.2E-03 | 4.1E-02 |  5.5  8.9E-03  OK|
 | E-Diss.K             | 1.02 | 1.6E-03 | 4.2E-02 |  7.7  1.6E-03  OK|
 +----------------------+------+---------+---------+------------------+

 ======================================================================
 OUTER LOOP ITERATION =   33                    CPU SECONDS = 2.063E+01
 ----------------------------------------------------------------------
 |       Equation       | Rate | RMS Res | Max Res |  Linear Solution |
 +----------------------+------+---------+---------+------------------+
 | U-Mom                | 0.96 | 9.5E-04 | 6.3E-03 |       2.8E-02  OK|
 | V-Mom                | 0.92 | 8.6E-04 | 5.1E-03 |       2.5E-02  OK|
 | W-Mom                | 0.94 | 6.1E-04 | 9.1E-03 |       4.8E-02  OK|
 | P-Mass               | 0.96 | 1.5E-04 | 2.4E-03 |  9.6  7.8E-02  OK|
 +----------------------+------+---------+---------+------------------+
 | H-Energy             | 0.90 | 3.2E-03 | 3.4E-02 |  5.5  2.2E-02  OK|
 +----------------------+------+---------+---------+------------------+
 | K-TurbKE             | 1.00 | 3.2E-03 | 3.9E-02 |  5.5  1.0E-02  OK|
 | E-Diss.K             | 1.06 | 1.6E-03 | 4.1E-02 |  7.7  1.9E-03  OK|
 +----------------------+------+---------+---------+------------------+

 ======================================================================
 OUTER LOOP ITERATION =   34                    CPU SECONDS = 2.116E+01
 ----------------------------------------------------------------------
 |       Equation       | Rate | RMS Res | Max Res |  Linear Solution |
 +----------------------+------+---------+---------+------------------+
 | U-Mom                | 0.95 | 9.1E-04 | 6.6E-03 |       2.9E-02  OK|
 | V-Mom                | 0.93 | 8.0E-04 | 5.5E-03 |       2.5E-02  OK|
 | W-Mom                | 0.93 | 5.7E-04 | 9.0E-03 |       4.8E-02  OK|
 | P-Mass               | 0.97 | 1.5E-04 | 2.4E-03 |  9.6  7.9E-02  OK|
 +----------------------+------+---------+---------+------------------+
 | H-Energy             | 0.91 | 2.9E-03 | 3.0E-02 |  5.5  2.2E-02  OK|
 +----------------------+------+---------+---------+------------------+
 | K-TurbKE             | 1.01 | 3.2E-03 | 4.2E-02 |  5.5  1.1E-02  OK|
 | E-Diss.K             | 1.10 | 1.8E-03 | 4.5E-02 |  7.7  2.2E-03  OK|
 +----------------------+------+---------+---------+------------------+

 ======================================================================
 OUTER LOOP ITERATION =   35                    CPU SECONDS = 2.170E+01
 ----------------------------------------------------------------------
 |       Equation       | Rate | RMS Res | Max Res |  Linear Solution |
 +----------------------+------+---------+---------+------------------+
 | U-Mom                | 0.94 | 8.6E-04 | 5.7E-03 |       3.0E-02  OK|
 | V-Mom                | 0.95 | 7.6E-04 | 5.7E-03 |       2.6E-02  OK|
 | W-Mom                | 0.92 | 5.2E-04 | 6.7E-03 |       4.8E-02  OK|
 | P-Mass               | 0.97 | 1.4E-04 | 2.2E-03 |  9.6  7.9E-02  OK|
 +----------------------+------+---------+---------+------------------+
 | H-Energy             | 0.92 | 2.7E-03 | 2.4E-02 |  5.5  2.1E-02  OK|
 +----------------------+------+---------+---------+------------------+
 | K-TurbKE             | 1.01 | 3.3E-03 | 3.7E-02 |  5.5  1.3E-02  OK|
 | E-Diss.K             | 1.14 | 2.1E-03 | 5.2E-02 |  7.7  2.5E-03  OK|
 +----------------------+------+---------+---------+------------------+

 ======================================================================
 |                        Timescale Information                       |
 ----------------------------------------------------------------------
 |       Equation       |         Type          |      Timescale      |
 +----------------------+-----------------------+---------------------+
 | U-Mom                | Auto Timescale        |     4.68567E-01     |
 | V-Mom                | Auto Timescale        |     4.68567E-01     |
 | W-Mom                | Auto Timescale        |     4.68567E-01     |
 +----------------------+-----------------------+---------------------+
 | H-Energy             | Auto Timescale        |     4.68567E-01     |
 +----------------------+-----------------------+---------------------+
 | K-TurbKE             | Auto Timescale        |     4.68567E-01     |
 | E-Diss.K             | Auto Timescale        |     4.68567E-01     |
 +----------------------+-----------------------+---------------------+

 ======================================================================
 OUTER LOOP ITERATION =   36                    CPU SECONDS = 2.223E+01
 ----------------------------------------------------------------------
 |       Equation       | Rate | RMS Res | Max Res |  Linear Solution |
 +----------------------+------+---------+---------+------------------+
 | U-Mom                | 0.93 | 8.0E-04 | 5.2E-03 |       3.0E-02  OK|
 | V-Mom                | 0.96 | 7.2E-04 | 5.1E-03 |       2.6E-02  OK|
 | W-Mom                | 0.91 | 4.8E-04 | 6.3E-03 |       4.7E-02  OK|
 | P-Mass               | 0.96 | 1.4E-04 | 2.0E-03 |  9.6  7.7E-02  OK|
 +----------------------+------+---------+---------+------------------+
 | H-Energy             | 0.92 | 2.5E-03 | 2.0E-02 |  5.5  1.9E-02  OK|
 +----------------------+------+---------+---------+------------------+
 | K-TurbKE             | 1.02 | 3.3E-03 | 2.9E-02 |  5.5  1.4E-02  OK|
 | E-Diss.K             | 1.15 | 2.4E-03 | 5.9E-02 |  7.7  2.8E-03  OK|
 +----------------------+------+---------+---------+------------------+

 ======================================================================
 OUTER LOOP ITERATION =   37                    CPU SECONDS = 2.275E+01
 ----------------------------------------------------------------------
 |       Equation       | Rate | RMS Res | Max Res |  Linear Solution |
 +----------------------+------+---------+---------+------------------+
 | U-Mom                | 0.92 | 7.3E-04 | 5.3E-03 |       3.1E-02  OK|
 | V-Mom                | 0.96 | 6.9E-04 | 5.2E-03 |       2.7E-02  OK|
 | W-Mom                | 0.92 | 4.4E-04 | 7.1E-03 |       4.7E-02  OK|
 | P-Mass               | 0.95 | 1.3E-04 | 1.7E-03 |  9.6  7.7E-02  OK|
 +----------------------+------+---------+---------+------------------+
 | H-Energy             | 0.93 | 2.3E-03 | 2.2E-02 |  5.5  1.9E-02  OK|
 +----------------------+------+---------+---------+------------------+
 | K-TurbKE             | 1.02 | 3.4E-03 | 2.9E-02 |  5.5  1.5E-02  OK|
 | E-Diss.K             | 1.15 | 2.7E-03 | 6.4E-02 |  7.7  3.2E-03  OK|
 +----------------------+------+---------+---------+------------------+

 ======================================================================
 OUTER LOOP ITERATION =   38                    CPU SECONDS = 2.328E+01
 ----------------------------------------------------------------------
 |       Equation       | Rate | RMS Res | Max Res |  Linear Solution |
 +----------------------+------+---------+---------+------------------+
 | U-Mom                | 0.91 | 6.7E-04 | 4.8E-03 |       3.2E-02  OK|
 | V-Mom                | 0.96 | 6.6E-04 | 5.7E-03 |       2.8E-02  OK|
 | W-Mom                | 0.92 | 4.0E-04 | 7.6E-03 |       4.9E-02  OK|
 | P-Mass               | 0.94 | 1.2E-04 | 1.4E-03 |  9.6  7.9E-02  OK|
 +----------------------+------+---------+---------+------------------+
 | H-Energy             | 0.93 | 2.1E-03 | 2.1E-02 |  5.5  1.8E-02  OK|
 +----------------------+------+---------+---------+------------------+
 | K-TurbKE             | 1.05 | 3.6E-03 | 3.1E-02 |  5.5  1.6E-02  OK|
 | E-Diss.K             | 1.17 | 3.2E-03 | 7.5E-02 |  7.6  3.3E-03  OK|
 +----------------------+------+---------+---------+------------------+

 ======================================================================
 OUTER LOOP ITERATION =   39                    CPU SECONDS = 2.386E+01
 ----------------------------------------------------------------------
 |       Equation       | Rate | RMS Res | Max Res |  Linear Solution |
 +----------------------+------+---------+---------+------------------+
 | U-Mom                | 0.91 | 6.1E-04 | 4.2E-03 |       3.4E-02  OK|
 | V-Mom                | 0.96 | 6.4E-04 | 6.1E-03 |       3.0E-02  OK|
 | W-Mom                | 0.93 | 3.7E-04 | 7.8E-03 |       5.0E-02  OK|
 | P-Mass               | 0.95 | 1.2E-04 | 1.3E-03 |  9.6  7.9E-02  OK|
 +----------------------+------+---------+---------+------------------+
 | H-Energy             | 0.93 | 2.0E-03 | 1.9E-02 |  5.5  1.8E-02  OK|
 +----------------------+------+---------+---------+------------------+
 | K-TurbKE             | 1.05 | 3.7E-03 | 3.3E-02 |  5.5  1.9E-02  OK|
 | E-Diss.K             | 1.18 | 3.8E-03 | 8.8E-02 |  7.6  3.9E-03  OK|
 +----------------------+------+---------+---------+------------------+

 ======================================================================
 OUTER LOOP ITERATION =   40                    CPU SECONDS = 2.438E+01
 ----------------------------------------------------------------------
 |       Equation       | Rate | RMS Res | Max Res |  Linear Solution |
 +----------------------+------+---------+---------+------------------+
 | U-Mom                | 0.92 | 5.6E-04 | 3.8E-03 |       3.5E-02  OK|
 | V-Mom                | 0.96 | 6.1E-04 | 6.2E-03 |       3.1E-02  OK|
 | W-Mom                | 0.93 | 3.5E-04 | 7.5E-03 |       5.2E-02  OK|
 | P-Mass               | 0.96 | 1.1E-04 | 1.2E-03 |  9.6  7.9E-02  OK|
 +----------------------+------+---------+---------+------------------+
 | H-Energy             | 0.94 | 1.9E-03 | 1.6E-02 |  5.5  1.7E-02  OK|
 +----------------------+------+---------+---------+------------------+
 | K-TurbKE             | 1.03 | 3.8E-03 | 3.4E-02 |  5.5  2.0E-02  OK|
 | E-Diss.K             | 1.17 | 4.4E-03 | 1.0E-01 |  7.7  4.3E-03  OK|
 +----------------------+------+---------+---------+------------------+

 ======================================================================
 |                        Timescale Information                       |
 ----------------------------------------------------------------------
 |       Equation       |         Type          |      Timescale      |
 +----------------------+-----------------------+---------------------+
 | U-Mom                | Auto Timescale        |     4.47426E-01     |
 | V-Mom                | Auto Timescale        |     4.47426E-01     |
 | W-Mom                | Auto Timescale        |     4.47426E-01     |
 +----------------------+-----------------------+---------------------+
 | H-Energy             | Auto Timescale        |     4.47426E-01     |
 +----------------------+-----------------------+---------------------+
 | K-TurbKE             | Auto Timescale        |     4.47426E-01     |
 | E-Diss.K             | Auto Timescale        |     4.47426E-01     |
 +----------------------+-----------------------+---------------------+

 ======================================================================
 OUTER LOOP ITERATION =   41                    CPU SECONDS = 2.491E+01
 ----------------------------------------------------------------------
 |       Equation       | Rate | RMS Res | Max Res |  Linear Solution |
 +----------------------+------+---------+---------+------------------+
 | U-Mom                | 0.93 | 5.2E-04 | 3.7E-03 |       3.6E-02  OK|
 | V-Mom                | 0.96 | 5.9E-04 | 5.9E-03 |       3.2E-02  OK|
 | W-Mom                | 0.94 | 3.3E-04 | 7.0E-03 |       5.3E-02  OK|
 | P-Mass               | 0.96 | 1.1E-04 | 1.1E-03 |  9.6  7.7E-02  OK|
 +----------------------+------+---------+---------+------------------+
 | H-Energy             | 0.94 | 1.8E-03 | 1.5E-02 |  5.5  1.6E-02  OK|
 +----------------------+------+---------+---------+------------------+
 | K-TurbKE             | 1.01 | 3.9E-03 | 3.4E-02 |  5.5  2.1E-02  OK|
 | E-Diss.K             | 1.13 | 5.0E-03 | 1.1E-01 |  7.6  4.5E-03  OK|
 +----------------------+------+---------+---------+------------------+

 ======================================================================
 OUTER LOOP ITERATION =   42                    CPU SECONDS = 2.542E+01
 ----------------------------------------------------------------------
 |       Equation       | Rate | RMS Res | Max Res |  Linear Solution |
 +----------------------+------+---------+---------+------------------+
 | U-Mom                | 0.94 | 4.9E-04 | 3.7E-03 |       3.9E-02  OK|
 | V-Mom                | 0.96 | 5.6E-04 | 5.4E-03 |       3.5E-02  OK|
 | W-Mom                | 0.96 | 3.1E-04 | 6.4E-03 |       5.4E-02  OK|
 | P-Mass               | 0.95 | 1.0E-04 | 1.0E-03 |  9.6  7.8E-02  OK|
 +----------------------+------+---------+---------+------------------+
 | H-Energy             | 0.95 | 1.7E-03 | 1.4E-02 |  5.5  1.6E-02  OK|
 +----------------------+------+---------+---------+------------------+
 | K-TurbKE             | 0.97 | 3.8E-03 | 3.3E-02 |  5.5  2.3E-02  OK|
 | E-Diss.K             | 1.09 | 5.4E-03 | 1.2E-01 |  7.6  4.8E-03  OK|
 +----------------------+------+---------+---------+------------------+

 ======================================================================
 OUTER LOOP ITERATION =   43                    CPU SECONDS = 2.595E+01
 ----------------------------------------------------------------------
 |       Equation       | Rate | RMS Res | Max Res |  Linear Solution |
 +----------------------+------+---------+---------+------------------+
 | U-Mom                | 0.96 | 4.7E-04 | 3.7E-03 |       4.1E-02  OK|
 | V-Mom                | 0.97 | 5.4E-04 | 4.6E-03 |       3.8E-02  OK|
 | W-Mom                | 0.96 | 3.0E-04 | 5.7E-03 |       5.7E-02  OK|
 | P-Mass               | 0.96 | 9.8E-05 | 8.7E-04 |  9.6  7.8E-02  OK|
 +----------------------+------+---------+---------+------------------+
 | H-Energy             | 0.96 | 1.6E-03 | 1.3E-02 |  5.5  1.7E-02  OK|
 +----------------------+------+---------+---------+------------------+
 | K-TurbKE             | 0.94 | 3.5E-03 | 2.9E-02 |  5.5  2.5E-02  OK|
 | E-Diss.K             | 1.05 | 5.7E-03 | 1.3E-01 |  7.6  5.2E-03  OK|
 +----------------------+------+---------+---------+------------------+

 ======================================================================
 OUTER LOOP ITERATION =   44                    CPU SECONDS = 2.647E+01
 ----------------------------------------------------------------------
 |       Equation       | Rate | RMS Res | Max Res |  Linear Solution |
 +----------------------+------+---------+---------+------------------+
 | U-Mom                | 0.97 | 4.6E-04 | 4.1E-03 |       4.5E-02  OK|
 | V-Mom                | 0.96 | 5.2E-04 | 4.1E-03 |       4.1E-02  OK|
 | W-Mom                | 0.96 | 2.9E-04 | 4.9E-03 |       6.1E-02  OK|
 | P-Mass               | 0.96 | 9.4E-05 | 8.3E-04 |  9.6  7.9E-02  OK|
 +----------------------+------+---------+---------+------------------+
 | H-Energy             | 0.96 | 1.5E-03 | 1.1E-02 |  5.5  1.7E-02  OK|
 +----------------------+------+---------+---------+------------------+
 | K-TurbKE             | 0.91 | 3.2E-03 | 2.7E-02 |  5.5  2.8E-02  OK|
 | E-Diss.K             | 1.00 | 5.7E-03 | 1.3E-01 |  7.6  5.4E-03  OK|
 +----------------------+------+---------+---------+------------------+

 ======================================================================
 OUTER LOOP ITERATION =   45                    CPU SECONDS = 2.700E+01
 ----------------------------------------------------------------------
 |       Equation       | Rate | RMS Res | Max Res |  Linear Solution |
 +----------------------+------+---------+---------+------------------+
 | U-Mom                | 0.97 | 4.4E-04 | 4.5E-03 |       4.8E-02  OK|
 | V-Mom                | 0.96 | 5.0E-04 | 3.9E-03 |       4.5E-02  OK|
 | W-Mom                | 0.96 | 2.8E-04 | 4.1E-03 |       6.5E-02  OK|
 | P-Mass               | 0.95 | 9.0E-05 | 8.2E-04 |  9.6  7.8E-02  OK|
 +----------------------+------+---------+---------+------------------+
 | H-Energy             | 0.96 | 1.5E-03 | 1.1E-02 |  5.5  1.9E-02  OK|
 +----------------------+------+---------+---------+------------------+
 | K-TurbKE             | 0.90 | 2.9E-03 | 2.4E-02 |  5.5  3.2E-02  OK|
 | E-Diss.K             | 0.96 | 5.5E-03 | 1.3E-01 |  7.6  6.1E-03  OK|
 +----------------------+------+---------+---------+------------------+

 ======================================================================
 |                        Timescale Information                       |
 ----------------------------------------------------------------------
 |       Equation       |         Type          |      Timescale      |
 +----------------------+-----------------------+---------------------+
 | U-Mom                | Auto Timescale        |     4.29206E-01     |
 | V-Mom                | Auto Timescale        |     4.29206E-01     |
 | W-Mom                | Auto Timescale        |     4.29206E-01     |
 +----------------------+-----------------------+---------------------+
 | H-Energy             | Auto Timescale        |     4.29206E-01     |
 +----------------------+-----------------------+---------------------+
 | K-TurbKE             | Auto Timescale        |     4.29206E-01     |
 | E-Diss.K             | Auto Timescale        |     4.29206E-01     |
 +----------------------+-----------------------+---------------------+

 ======================================================================
 OUTER LOOP ITERATION =   46                    CPU SECONDS = 2.753E+01
 ----------------------------------------------------------------------
 |       Equation       | Rate | RMS Res | Max Res |  Linear Solution |
 +----------------------+------+---------+---------+------------------+
 | U-Mom                | 0.96 | 4.3E-04 | 4.6E-03 |       5.1E-02  OK|
 | V-Mom                | 0.95 | 4.8E-04 | 3.9E-03 |       4.7E-02  OK|
 | W-Mom                | 0.95 | 2.7E-04 | 3.3E-03 |       6.8E-02  OK|
 | P-Mass               | 0.95 | 8.5E-05 | 8.5E-04 |  9.6  7.7E-02  OK|
 +----------------------+------+---------+---------+------------------+
 | H-Energy             | 0.95 | 1.4E-03 | 9.2E-03 |  5.5  1.8E-02  OK|
 +----------------------+------+---------+---------+------------------+
 | K-TurbKE             | 0.90 | 2.6E-03 | 2.1E-02 |  5.5  3.3E-02  OK|
 | E-Diss.K             | 0.92 | 5.1E-03 | 1.2E-01 |  7.6  6.7E-03  OK|
 +----------------------+------+---------+---------+------------------+

 ======================================================================
 OUTER LOOP ITERATION =   47                    CPU SECONDS = 2.806E+01
 ----------------------------------------------------------------------
 |       Equation       | Rate | RMS Res | Max Res |  Linear Solution |
 +----------------------+------+---------+---------+------------------+
 | U-Mom                | 0.95 | 4.1E-04 | 4.6E-03 |       5.4E-02  OK|
 | V-Mom                | 0.94 | 4.5E-04 | 3.8E-03 |       5.0E-02  OK|
 | W-Mom                | 0.95 | 2.5E-04 | 2.6E-03 |       7.2E-02  OK|
 | P-Mass               | 0.93 | 7.9E-05 | 8.2E-04 |  9.6  7.7E-02  OK|
 +----------------------+------+---------+---------+------------------+
 | H-Energy             | 0.95 | 1.3E-03 | 8.7E-03 |  5.5  2.0E-02  OK|
 +----------------------+------+---------+---------+------------------+
 | K-TurbKE             | 0.89 | 2.3E-03 | 1.8E-02 |  5.5  3.5E-02  OK|
 | E-Diss.K             | 0.92 | 4.6E-03 | 1.1E-01 |  7.6  7.0E-03  OK|
 +----------------------+------+---------+---------+------------------+

 ======================================================================
 OUTER LOOP ITERATION =   48                    CPU SECONDS = 2.858E+01
 ----------------------------------------------------------------------
 |       Equation       | Rate | RMS Res | Max Res |  Linear Solution |
 +----------------------+------+---------+---------+------------------+
 | U-Mom                | 0.95 | 3.9E-04 | 4.5E-03 |       5.7E-02  OK|
 | V-Mom                | 0.94 | 4.2E-04 | 3.6E-03 |       5.3E-02  OK|
 | W-Mom                | 0.95 | 2.4E-04 | 2.0E-03 |       7.7E-02  OK|
 | P-Mass               | 0.93 | 7.4E-05 | 7.5E-04 |  9.6  7.8E-02  OK|
 +----------------------+------+---------+---------+------------------+
 | H-Energy             | 0.95 | 1.3E-03 | 8.2E-03 |  5.5  2.1E-02  OK|
 +----------------------+------+---------+---------+------------------+
 | K-TurbKE             | 0.90 | 2.1E-03 | 1.6E-02 |  5.5  3.6E-02  OK|
 | E-Diss.K             | 0.91 | 4.2E-03 | 9.5E-02 |  7.6  7.2E-03  OK|
 +----------------------+------+---------+---------+------------------+

 ======================================================================
 OUTER LOOP ITERATION =   49                    CPU SECONDS = 2.911E+01
 ----------------------------------------------------------------------
 |       Equation       | Rate | RMS Res | Max Res |  Linear Solution |
 +----------------------+------+---------+---------+------------------+
 | U-Mom                | 0.95 | 3.7E-04 | 4.2E-03 |       6.0E-02  OK|
 | V-Mom                | 0.93 | 3.9E-04 | 3.5E-03 |       5.6E-02  OK|
 | W-Mom                | 0.93 | 2.2E-04 | 1.7E-03 |       8.1E-02  OK|
 | P-Mass               | 0.92 | 6.8E-05 | 6.7E-04 |  9.6  7.9E-02  OK|
 +----------------------+------+---------+---------+------------------+
 | H-Energy             | 0.95 | 1.2E-03 | 7.1E-03 |  5.5  2.1E-02  OK|
 +----------------------+------+---------+---------+------------------+
 | K-TurbKE             | 0.90 | 1.9E-03 | 1.3E-02 |  5.5  3.8E-02  OK|
[...]
 +----------------------+-----------------------+---------------------+
 | H-Energy             | Auto Timescale        |     2.95624E-01     |
 +----------------------+-----------------------+---------------------+
 | K-TurbKE             | Auto Timescale        |     2.95624E-01     |
 | E-Diss.K             | Auto Timescale        |     2.95624E-01     |
 +----------------------+-----------------------+---------------------+

 ======================================================================
 OUTER LOOP ITERATION =   96                    CPU SECONDS = 5.405E+01
 ----------------------------------------------------------------------
 |       Equation       | Rate | RMS Res | Max Res |  Linear Solution |
 +----------------------+------+---------+---------+------------------+
 | U-Mom                | 0.99 | 2.1E-04 | 4.3E-03 |       2.1E-02  OK|
 | V-Mom                | 0.99 | 2.2E-04 | 1.5E-03 |       2.2E-02  OK|
 | W-Mom                | 0.98 | 9.2E-05 | 1.5E-03 |       8.1E-02  OK|
 | P-Mass               | 1.00 | 3.6E-05 | 3.9E-04 | 13.8  3.6E-02  OK|
 +----------------------+------+---------+---------+------------------+
 | H-Energy             | 0.97 | 4.3E-04 | 1.1E-02 |  5.5  2.8E-02  OK|
 +----------------------+------+---------+---------+------------------+
 | K-TurbKE             | 0.97 | 2.3E-04 | 1.8E-03 |  5.5  3.5E-02  OK|
 | E-Diss.K             | 0.99 | 2.3E-04 | 4.1E-03 |  7.6  1.0E-02  OK|
 +----------------------+------+---------+---------+------------------+

 ======================================================================
 OUTER LOOP ITERATION =   97                    CPU SECONDS = 5.458E+01
 ----------------------------------------------------------------------
 |       Equation       | Rate | RMS Res | Max Res |  Linear Solution |
 +----------------------+------+---------+---------+------------------+
 | U-Mom                | 0.98 | 2.1E-04 | 4.0E-03 |       2.1E-02  OK|
 | V-Mom                | 0.98 | 2.2E-04 | 1.4E-03 |       2.2E-02  OK|
 | W-Mom                | 0.97 | 9.0E-05 | 1.5E-03 |       8.5E-02  OK|
 | P-Mass               | 1.00 | 3.6E-05 | 3.8E-04 | 13.8  3.7E-02  OK|
 +----------------------+------+---------+---------+------------------+
 | H-Energy             | 0.97 | 4.2E-04 | 1.1E-02 |  5.5  2.7E-02  OK|
 +----------------------+------+---------+---------+------------------+
 | K-TurbKE             | 0.98 | 2.3E-04 | 1.7E-03 |  5.5  3.5E-02  OK|
 | E-Diss.K             | 1.01 | 2.3E-04 | 4.1E-03 |  7.6  1.1E-02  OK|
 +----------------------+------+---------+---------+------------------+

 ======================================================================
 OUTER LOOP ITERATION =   98                    CPU SECONDS = 5.513E+01
 ----------------------------------------------------------------------
 |       Equation       | Rate | RMS Res | Max Res |  Linear Solution |
 +----------------------+------+---------+---------+------------------+
 | U-Mom                | 0.99 | 2.0E-04 | 3.8E-03 |       2.2E-02  OK|
 | V-Mom                | 0.99 | 2.1E-04 | 1.3E-03 |       2.2E-02  OK|
 | W-Mom                | 0.98 | 8.8E-05 | 1.5E-03 |       8.9E-02  OK|
 | P-Mass               | 1.00 | 3.6E-05 | 3.8E-04 | 13.8  3.8E-02  OK|
 +----------------------+------+---------+---------+------------------+
 | H-Energy             | 0.97 | 4.1E-04 | 9.7E-03 |  5.5  2.8E-02  OK|
 +----------------------+------+---------+---------+------------------+
 | K-TurbKE             | 0.98 | 2.2E-04 | 1.7E-03 |  5.5  3.6E-02  OK|
 | E-Diss.K             | 1.01 | 2.3E-04 | 4.1E-03 |  7.6  1.1E-02  OK|
 +----------------------+------+---------+---------+------------------+

 ======================================================================
 OUTER LOOP ITERATION =   99                    CPU SECONDS = 5.567E+01
 ----------------------------------------------------------------------
 |       Equation       | Rate | RMS Res | Max Res |  Linear Solution |
 +----------------------+------+---------+---------+------------------+
 | U-Mom                | 0.99 | 2.0E-04 | 3.7E-03 |       2.2E-02  OK|
 | V-Mom                | 0.99 | 2.1E-04 | 1.2E-03 |       2.3E-02  OK|
 | W-Mom                | 0.98 | 8.5E-05 | 1.5E-03 |       9.4E-02  OK|
 | P-Mass               | 1.00 | 3.6E-05 | 3.7E-04 | 13.8  3.9E-02  OK|
 +----------------------+------+---------+---------+------------------+
 | H-Energy             | 0.97 | 3.9E-04 | 8.9E-03 |  5.5  2.8E-02  OK|
 +----------------------+------+---------+---------+------------------+
 | K-TurbKE             | 0.98 | 2.2E-04 | 1.6E-03 |  5.5  3.6E-02  OK|
 | E-Diss.K             | 1.02 | 2.3E-04 | 4.2E-03 |  7.6  1.1E-02  OK|
 +----------------------+------+---------+---------+------------------+

 ======================================================================
 OUTER LOOP ITERATION =  100                    CPU SECONDS = 5.623E+01
 ----------------------------------------------------------------------
 |       Equation       | Rate | RMS Res | Max Res |  Linear Solution |
 +----------------------+------+---------+---------+------------------+
 | U-Mom                | 0.99 | 2.0E-04 | 3.6E-03 |       2.2E-02  OK|
 | V-Mom                | 0.99 | 2.1E-04 | 1.2E-03 |       2.3E-02  OK|
 | W-Mom                | 0.98 | 8.4E-05 | 1.5E-03 |       9.9E-02  OK|
 | P-Mass               | 1.01 | 3.6E-05 | 3.7E-04 | 13.8  3.9E-02  OK|
 +----------------------+------+---------+---------+------------------+
 | H-Energy             | 0.97 | 3.8E-04 | 8.2E-03 |  5.5  2.8E-02  OK|
 +----------------------+------+---------+---------+------------------+
 | K-TurbKE             | 0.99 | 2.2E-04 | 1.6E-03 |  5.5  3.7E-02  OK|
 | E-Diss.K             | 1.02 | 2.4E-04 | 4.2E-03 |  7.6  1.1E-02  OK|
 +----------------------+------+---------+---------+------------------+
                   
 CFD Solver finished: Wed Dec  5 11:09:51 2018
 CFD Solver wall clock seconds: 5.3128E+01

 ======================================================================
              Termination and Interrupt Condition Summary
 ======================================================================
    
 CFD Solver: Run duration reached
   (Maximum number of outer iterations)

 ======================================================================
              Boundary Flow and Total Source Term Summary
 ======================================================================

 +--------------------------------------------------------------------+
 |                               U-Mom                                |
 +--------------------------------------------------------------------+
 Boundary         : Default Domain Default                  2.2751E+01
 Boundary         : in1                                     4.9906E-05
 Boundary         : in2                                    -5.0064E-05
 Boundary         : out                                    -2.2571E+01
                                                           -----------
 Domain Imbalance :                                         1.8033E-01

 +--------------------------------------------------------------------+
 |                               V-Mom                                |
 +--------------------------------------------------------------------+
 Boundary         : Default Domain Default                 -4.6663E+00
 Boundary         : in1                                     3.1648E+04
 Boundary         : in2                                    -3.1634E+04
 Boundary         : out                                    -9.0112E+00
                                                           -----------
 Domain Imbalance :                                         1.9585E-01

 +--------------------------------------------------------------------+
 |                               W-Mom                                |
 +--------------------------------------------------------------------+
 Boundary         : Default Domain Default                 -1.1778E+04
 Boundary         : in1                                    -1.7773E-05
 Boundary         : in2                                    -8.2692E-06
 Boundary         : out                                     1.1818E+04
                                                           -----------
 Domain Imbalance :                                         4.0556E+01

 +--------------------------------------------------------------------+
 |                               P-Mass                               |
 +--------------------------------------------------------------------+
 Boundary         : in1                                     1.5000E+03
 Boundary         : in2                                     1.5000E+03
 Boundary         : out                                    -2.9999E+03
                                                           -----------
 Domain Imbalance :                                         1.4868E-01

 +--------------------------------------------------------------------+
 |                              H-Energy                              |
 +--------------------------------------------------------------------+
 Boundary         : in1                                     1.0569E+08
 Boundary         : in2                                    -8.2484E+07
 Boundary         : out                                    -2.3453E+07
                                                           -----------
 Domain Imbalance :                                        -2.4446E+05


 +--------------------------------------------------------------------+
 |                     Normalised Imbalance Summary                   |
 +--------------------------------------------------------------------+
 |       Equation       |      Maximum Flow     |     Imbalance (%)   |
 +--------------------------------------------------------------------+
 | U-Mom                |       3.1648E+04      |        0.0006       |
 | V-Mom                |       3.1648E+04      |        0.0006       |
 | W-Mom                |       3.1648E+04      |        0.1281       |
 | P-Mass               |       2.9999E+03      |        0.0050       |
 +----------------------+-----------------------+---------------------+
 | H-Energy             |       1.0569E+08      |       -0.2313       |
 +----------------------+-----------------------+---------------------+

 ======================================================================
                     Wall Force and Moment Summary
 ======================================================================
                                                                          
 Notes:
 1. Pressure integrals exclude the reference pressure.  To include
    it, set the expert parameter 'include pref in forces = t'.


 +--------------------------------------------------------------------+
 |                      Pressure Force On Walls                       |
 +--------------------------------------------------------------------+
                                    X-Comp.      Y-Comp.      Z-Comp.

 Domain Group: Default Domain

 Default Domain Default          -2.1928E+01   2.6289E+00   1.1894E+04
                                  -----------  -----------  -----------
 Domain Group Totals :           -2.1928E+01   2.6289E+00   1.1894E+04


 +--------------------------------------------------------------------+
 |                       Viscous Force On Walls                       |
 +--------------------------------------------------------------------+
                                    X-Comp.      Y-Comp.      Z-Comp.

 Domain Group: Default Domain

 Default Domain Default          -8.1300E-01   2.0150E+00  -1.1566E+02
                                  -----------  -----------  -----------
 Domain Group Totals :           -8.1300E-01   2.0150E+00  -1.1566E+02


 +--------------------------------------------------------------------+
 |                      Pressure Moment On Walls                      |
 +--------------------------------------------------------------------+
                                    X-Comp.      Y-Comp.      Z-Comp.

 Domain Group: Default Domain

 Default Domain Default           6.8980E-01   5.7687E+01  -4.9918E+04
                                  -----------  -----------  -----------
 Domain Group Totals :            6.8980E-01   5.7687E+01  -4.9918E+04


 +--------------------------------------------------------------------+
 |                       Viscous Moment On Walls                      |
 +--------------------------------------------------------------------+
                                    X-Comp.      Y-Comp.      Z-Comp.

 Domain Group: Default Domain

 Default Domain Default          -1.7924E+00  -7.4473E-03  -2.3028E+03
                                  -----------  -----------  -----------
 Domain Group Totals :           -1.7924E+00  -7.4473E-03  -2.3028E+03


 +--------------------------------------------------------------------+
 |                   Locations of Maximum Residuals                   |
 +--------------------------------------------------------------------+
 |       Equation       |      Domain Name      |     Node Number     |
 +--------------------------------------------------------------------+
 | U-Mom                | Default Domain        |          13991      |
 | V-Mom                | Default Domain        |          13893      |
 | W-Mom                | Default Domain        |          13960      |
 | P-Mass               | Default Domain        |          13912      |
 +----------------------+-----------------------+---------------------+
 | H-Energy             | Default Domain        |          13991      |
 +----------------------+-----------------------+---------------------+
 | K-TurbKE             | Default Domain        |          10478      |
 | E-Diss.K             | Default Domain        |          14693      |
 +----------------------+-----------------------+---------------------+

 ======================================================================
 |                     False Transient Information                    |
 +--------------------------------------------------------------------+
 |       Equation       |         Type          | Elapsed Pseudo-Time |
 +--------------------------------------------------------------------+
 | U-Mom                | Auto Timescale        |     5.16698E+01     |
 | V-Mom                | Auto Timescale        |     5.16698E+01     |
 | W-Mom                | Auto Timescale        |     5.16698E+01     |
 +----------------------+-----------------------+---------------------+
 | H-Energy             | Auto Timescale        |     5.16698E+01     |
 +----------------------+-----------------------+---------------------+
 | K-TurbKE             | Auto Timescale        |     5.16698E+01     |
 | E-Diss.K             | Auto Timescale        |     5.16698E+01     |
 +----------------------+-----------------------+---------------------+

 +--------------------------------------------------------------------+
 |                     Average Scale Information                      |
 +--------------------------------------------------------------------+

 Domain Name : Default Domain
     Global Length                                         = 3.2195E+00
     Minimum Extent                                        = 4.0000E+00
     Maximum Extent                                        = 6.0000E+00
     Density                                               = 9.9700E+02
     Dynamic Viscosity                                     = 8.8990E-04
     Velocity                                              = 3.5250E+00
     Advection Time                                        = 9.1333E-01
     Reynolds Number                                       = 1.2714E+07
     Thermal Conductivity                                  = 6.0690E-01
     Specific Heat Capacity at Constant Pressure           = 4.1817E+03
     Prandtl Number                                        = 6.1316E+00
     Temperature Range                                     = 3.0021E+01

 +--------------------------------------------------------------------+
 |                     Variable Range Information                     |
 +--------------------------------------------------------------------+

 Domain Name : Default Domain
 +--------------------------------------------------------------------+
 |      Variable Name                         |    min    |    max    |
 +--------------------------------------------------------------------+
 | Density                                    |  9.97E+02 |  9.97E+02 |
 | Specific Heat Capacity at Constant Pressure|  4.18E+03 |  4.18E+03 |
 | Dynamic Viscosity                          |  8.90E-04 |  8.90E-04 |
 | Thermal Conductivity                       |  6.07E-01 |  6.07E-01 |
 | Static Entropy                             | -1.89E+02 |  2.30E+02 |
 | Velocity u                                 | -5.10E+00 |  5.09E+00 |
 | Velocity v                                 | -5.07E+00 |  5.06E+00 |
 | Velocity w                                 | -4.69E+00 |  1.40E+00 |
 | Pressure                                   | -6.49E+03 |  3.88E+04 |
 | Turbulence Kinetic Energy                  |  9.13E-05 |  3.34E+00 |
 | Turbulence Eddy Dissipation                |  2.37E-04 |  1.48E+02 |
 | Eddy Viscosity                             |  1.05E-03 |  2.67E+02 |
 | Temperature                                |  2.85E+02 |  3.15E+02 |
 | Static Enthalpy                            | -5.50E+04 |  7.05E+04 |
 +--------------------------------------------------------------------+

 +--------------------------------------------------------------------+
 |               CPU Requirements of Numerical Solution               |
 +--------------------------------------------------------------------+

 Subsystem Name                  Discretization       Linear Solution
                                (secs.   %total)     (secs.   %total) 
 ----------------------------------------------------------------------
 Momentum and Mass              1.84E+01  31.0 %     5.21E+00   8.8 %
 Heat Transfer                  6.25E+00  10.5 %     2.11E+00   3.6 %
 TurbKE and Diss.K              9.43E+00  15.9 %     4.73E+00   8.0 %
                                -------- -------     --------  ------
 Subsystem Summary              3.41E+01  57.5 %     1.20E+01  20.3 %

 File Reading                   1.10E-02    0.0 %
 Variable Updates               6.54E+00   11.0 %
 File Writing                   2.04E-01    0.3 %
 Miscellaneous                  6.38E+00   10.8 %
                                --------
 Total                          5.93E+01

 +--------------------------------------------------------------------+
 |                   Job Information at End of Run                    |
 +--------------------------------------------------------------------+

 Host computer:  ENPC-LAB124 (PID:13532)

 Job finished:   Wed Dec  5 11:09:53 2018

 Total wall clock time: 5.925E+01 seconds
             or: (          0:         0:         0:    59.253 )
                 (       Days:     Hours:   Minutes:   Seconds )

End of solution stage.

 +--------------------------------------------------------------------+
 | The results from this run of the ANSYS CFX Solver have been        |
 | written to                                                         |
 | H:/dos/CFD/CW/CFD-Static-Mixer/StaticMixerDX_pending/dp1_CFX_Solu- |
 | tion/Fluid Flow CFX_001.res                                        |
 +--------------------------------------------------------------------+


 +--------------------------------------------------------------------+
 | For CFX runs launched from Workbench, the final locations of       |
 | directories and files generated may differ from those shown.       |
 +--------------------------------------------------------------------+


This run of the ANSYS CFX Solver has finished.
