 This run of the CFX Release 19.1 Solver started at 14:36:06 on 06 Dec
 2018 by user jc2182 on ENPC-LAB137 (intel_xeon64.sse2_winnt) using the
 command:
 
  "C:\Program Files\ANSYS Inc\v191\CFX\bin\perllib\cfx5solve.pl" -batch
    -ccl runInput.ccl -fullname "Fluid Flow CFX_009"
 
 Release 19.1
 
  Point Releases and Patches installed:
  ANSYS, Inc. Products Release 19.1
  SpaceClaim Release 19.1
  Autodyn Release 19.1
  LS-DYNA Release 19.1
  CFD-Post only Release 19.1
  CFX (includes CFD-Post) Release 19.1
  Chemkin Release 19.1
  EnSight Release 19.1
  FENSAP-ICE Release 19.1
  Fluent (includes CFD-Post) Release 19.1
  Forte Release 19.1
  Polyflow (includes CFD-Post) Release 19.1
  TurboGrid Release 19.1
  ICEM CFD Release 19.1
  Customization Files for User Programmable Features Release 19.1
  Mechanical Products Release 19.1
  Icepak (includes CFD-Post) Release 19.1
  Remote Solve Manager Standalone Services Release 19.1
  ACIS Geometry Interface Release 19.1
  Catia, Version 5 Geometry Interface Release 19.1
  NX Geometry Interface Release 19.1
  Parasolid Geometry Interface  Release 19.1
  ANSYS, Inc. License Manager Release 19.1
 
 Setting up CFX Solver run ...
 
 
 +--------------------------------------------------------------------+
 |                                                                    |
 |                    CFX Command Language for Run                    |
 |                                                                    |
 +--------------------------------------------------------------------+
 
 LIBRARY:
   CEL:
     EXPRESSIONS:
       inMassFlow = 1500 [kg s^-1]
     END
   END
   MATERIAL: Water
     Material Description = Water (liquid)
     Material Group = Water Data, Constant Property Liquids
     Option = Pure Substance
     Thermodynamic State = Liquid
     PROPERTIES:
       Option = General Material
       EQUATION OF STATE:
         Density = 997.0 [kg m^-3]
         Molar Mass = 18.02 [kg kmol^-1]
         Option = Value
       END
       SPECIFIC HEAT CAPACITY:
         Option = Value
         Specific Heat Capacity = 4181.7 [J kg^-1 K^-1]
         Specific Heat Type = Constant Pressure
       END
       REFERENCE STATE:
         Option = Specified Point
         Reference Pressure = 1 [atm]
         Reference Specific Enthalpy = 0.0 [J/kg]
         Reference Specific Entropy = 0.0 [J/kg/K]
         Reference Temperature = 25 [C]
       END
       DYNAMIC VISCOSITY:
         Dynamic Viscosity = 8.899E-4 [kg m^-1 s^-1]
         Option = Value
       END
       THERMAL CONDUCTIVITY:
         Option = Value
         Thermal Conductivity = 0.6069 [W m^-1 K^-1]
       END
       ABSORPTION COEFFICIENT:
         Absorption Coefficient = 1.0 [m^-1]
         Option = Value
       END
       SCATTERING COEFFICIENT:
         Option = Value
         Scattering Coefficient = 0.0 [m^-1]
       END
       REFRACTIVE INDEX:
         Option = Value
         Refractive Index = 1.0 [m m^-1]
       END
       THERMAL EXPANSIVITY:
         Option = Value
         Thermal Expansivity = 2.57E-04 [K^-1]
       END
     END
   END
 END
 FLOW: Flow Analysis 1
   SOLUTION UNITS:
     Angle Units = [rad]
     Length Units = [m]
     Mass Units = [kg]
     Solid Angle Units = [sr]
     Temperature Units = [K]
     Time Units = [s]
   END
   ANALYSIS TYPE:
     Option = Steady State
     EXTERNAL SOLVER COUPLING:
       Option = None
     END
   END
   DOMAIN: Default Domain
     Coord Frame = Coord 0
     Domain Type = Fluid
     Location = B17
     BOUNDARY: Default Domain Default
       Boundary Type = WALL
       Location = F12.17,F14.17,F16.17,F19.17,F20.17,F21.17
       BOUNDARY CONDITIONS:
         HEAT TRANSFER:
           Option = Adiabatic
         END
         MASS AND MOMENTUM:
           Option = No Slip Wall
         END
         WALL ROUGHNESS:
           Option = Smooth Wall
         END
       END
     END
     BOUNDARY: in1
       Boundary Type = INLET
       Location = in1
       BOUNDARY CONDITIONS:
         FLOW DIRECTION:
           Option = Normal to Boundary Condition
         END
         FLOW REGIME:
           Option = Subsonic
         END
         HEAT TRANSFER:
           Option = Static Temperature
           Static Temperature = 315 [K]
         END
         MASS AND MOMENTUM:
           Mass Flow Rate = inMassFlow
           Mass Flow Rate Area = As Specified
           Option = Mass Flow Rate
         END
         TURBULENCE:
           Option = Medium Intensity and Eddy Viscosity Ratio
         END
       END
     END
     BOUNDARY: in2
       Boundary Type = INLET
       Location = in2
       BOUNDARY CONDITIONS:
         FLOW DIRECTION:
           Option = Normal to Boundary Condition
         END
         FLOW REGIME:
           Option = Subsonic
         END
         HEAT TRANSFER:
           Option = Static Temperature
           Static Temperature = 285 [K]
         END
         MASS AND MOMENTUM:
           Mass Flow Rate = inMassFlow
           Mass Flow Rate Area = As Specified
           Option = Mass Flow Rate
         END
         TURBULENCE:
           Option = Medium Intensity and Eddy Viscosity Ratio
         END
       END
     END
     BOUNDARY: out
       Boundary Type = OUTLET
       Location = out
       BOUNDARY CONDITIONS:
         FLOW REGIME:
           Option = Subsonic
         END
         MASS AND MOMENTUM:
           Option = Static Pressure
           Relative Pressure = 0 [Pa]
         END
       END
     END
     DOMAIN MODELS:
       BUOYANCY MODEL:
         Option = Non Buoyant
       END
       DOMAIN MOTION:
         Option = Stationary
       END
       MESH DEFORMATION:
         Option = None
       END
       REFERENCE PRESSURE:
         Reference Pressure = 1 [atm]
       END
     END
     FLUID DEFINITION: Fluid 1
       Material = Water
       Option = Material Library
       MORPHOLOGY:
         Option = Continuous Fluid
       END
     END
     FLUID MODELS:
       COMBUSTION MODEL:
         Option = None
       END
       HEAT TRANSFER MODEL:
         Option = Thermal Energy
       END
       THERMAL RADIATION MODEL:
         Option = None
       END
       TURBULENCE MODEL:
         Option = k epsilon
       END
       TURBULENT WALL FUNCTIONS:
         Option = Scalable
       END
     END
   END
   OUTPUT CONTROL:
     RESULTS:
       File Compression Level = Default
       Option = Standard
     END
   END
   SOLVER CONTROL:
     Turbulence Numerics = High Resolution
     ADVECTION SCHEME:
       Option = High Resolution
     END
     CONVERGENCE CONTROL:
       Length Scale Option = Conservative
       Maximum Number of Iterations = 100
       Minimum Number of Iterations = 5
       Timescale Control = Auto Timescale
       Timescale Factor = 1.0
     END
     CONVERGENCE CRITERIA:
       Residual Target = 1.E-4
       Residual Type = RMS
     END
     DYNAMIC MODEL CONTROL:
       Global Dynamic Model Control = On
     END
   END
 END
 COMMAND FILE:
   Version = 19.1
   Results Version = 19.1
 END
 PARAMETERIZATION:
   INPUT FIELD: inMassFlow
     Expression Name = inMassFlow
     Method = Expression
   END
 END
 SIMULATION CONTROL:
   EXECUTION CONTROL:
     EXECUTABLE SELECTION:
       Double Precision = No
       Large Problem = No
     END
     INTERPOLATOR STEP CONTROL:
       Runtime Priority = Standard
       MEMORY CONTROL:
         Memory Allocation Factor = 1.0
       END
     END
     PARALLEL HOST LIBRARY:
       HOST DEFINITION: enpclab137
         Remote Host Name = ENPC-LAB137
         Host Architecture String = winnt-amd64
         Installation Root = C:\Program Files\ANSYS Inc\v%v\CFX
       END
     END
     PARTITIONER STEP CONTROL:
       Multidomain Option = Automatic
       Runtime Priority = Standard
       MEMORY CONTROL:
         Memory Allocation Factor = 1.0
       END
       PARTITION SMOOTHING:
         Maximum Partition Smoothing Sweeps = 100
         Option = Smooth
       END
       PARTITIONING TYPE:
         MeTiS Type = k-way
         Option = MeTiS
         Partition Size Rule = Automatic
       END
     END
     RUN DEFINITION:
       Run Mode = Full
       Solver Input File = Fluid Flow CFX.def
       Solver Results File = \
         H:/dos/CFD/CW/CFD-Static-Mixer/StaticMixerDX_pending/dp8_CFX_Solution\
         /Fluid Flow CFX_009.res
       INITIAL VALUES SPECIFICATION:
         INITIAL VALUES CONTROL:
           Use Mesh From = Solver Input File
           Continue History From = Workbench Initial Values
         END
         INITIAL VALUES: Workbench Initial Values
           Option = Results File
           File Name = Fluid Flow CFX_008.res
         END
       END
     END
     SOLVER STEP CONTROL:
       Runtime Priority = Standard
       MEMORY CONTROL:
         Memory Allocation Factor = 1.0
       END
       PARALLEL ENVIRONMENT:
         Number of Processes = 1
         Start Method = Serial
       END
     END
   END
 END
 
 
 +--------------------------------------------------------------------+
 |                                                                    |
 |                  Interpolation of Initial Values                   |
 |                                                                    |
 +--------------------------------------------------------------------+
 
 


 +--------------------------------------------------------------------+
 |                                                                    |
 |                    ANSYS(R) CFX(R) Interpolator                    |
 |                                                                    |
 | Release 19.1                                                       |
 | Build 19.1 2018-04-17T13:27:50.069000                              |
 | Tue Apr 17 15:02:11 GMTDT 2018                                     |
 |                                                                    |
 |                        Executable Attributes                       |
 |                                                                    |
 |           single-64bit-int32-archfort-optimised-std-lcomp          |
 |                                                                    |
 | (C) 1996-2018 ANSYS, Inc.                                          |
 |                                                                    |
 | All rights reserved. Unauthorized use, distribution or duplication |
 | is prohibited. This product is subject to U.S. laws governing      |
 | export and re-export. For full Legal Notice, see documentation.    |
 +--------------------------------------------------------------------+




 +--------------------------------------------------------------------+
 |                  Job Information at Start of Run                   |
 +--------------------------------------------------------------------+

 Run mode:       serial run

 Host computer:  ENPC-LAB137 (PID:12376)

 Job started:    Thu Dec  6 14:36:07 2018


 +--------------------------------------------------------------------+
 |        Memory Allocated for Run  (Actual usage may be less)        |
 +--------------------------------------------------------------------+

           | Real       | Integer    | Character | Logical  | Double
 ----------+------------+------------+-----------+----------+----------
 Mwords    |       1.28 |       1.60 |      0.20 |     0.01 |     0.05
 Mbytes    |       4.87 |       6.09 |      0.19 |     0.04 |     0.40
 ----------+------------+------------+-----------+----------+----------


 +--------------------------------------------------------------------+
 |                  Host Memory Information (Mbytes)                  |
 +--------------------------------------------------------------------+
 |          Host           |     System     |   Allocated    |   %    |
 +-------------------------+----------------+----------------+--------+
 | ENPC-LAB137             |     16240.97   |        11.59   |   0.07 |
 +-------------------------+----------------+----------------+--------+

 ======================================================================
               Interpolating Onto Domain "Default Domain"
 ======================================================================

 Total Number of Nodes in the Target Domain              =        17346
 Bounding Box Volume of the Target Mesh                  =  9.60000E+01


 Checking all source domains from the source file:
   Target mesh is different from domain "Default Domain".

 Searching for Candidate Source Domains:
   Domain "Default Domain"
     Number of Mapped Nodes                     =        14536 ( 83.8%)
     Bounding Box Overlap Volume                =  9.60000E+01 (100.0%)
   Setting Up Unmapped Nodes:
     Number of Unmapped Nodes                   =         2810 ( 16.2%)

 Start interpolation of variables: 
   Source Domain Name                                    Mapped Nodes
   Default Domain                                        14536 ( 83.8%)

 +--------------------------------------------------------------------+
 |                     Variable Range Information                     |
 +--------------------------------------------------------------------+
 +--------------------------------------------------------------------+
 |      Variable Name                         |    min    |    max    |
 +--------------------------------------------------------------------+
 | Thermal Conductivity                       |  6.07E-01 |  6.07E-01 |
 | Courant Number                             |  8.62E-01 |  2.89E+01 |
 | Density                                    |  9.97E+02 |  9.97E+02 |
 | Static Enthalpy                            | -5.53E+04 |  7.07E+04 |
 | Static Entropy                             | -1.90E+02 |  2.31E+02 |
 | Pressure                                   | -1.29E+04 |  9.98E+04 |
 | Specific Heat Capacity at Constant Pressure|  4.18E+03 |  4.18E+03 |
 | Specific Heat Capacity at Constant Volume  |  4.18E+03 |  4.18E+03 |
 | Turbulence Eddy Dissipation                |  2.24E-03 |  6.53E+01 |
 | Turbulence Eddy Frequency                  |  7.67E+00 |  1.03E+03 |
 | Temperature                                |  2.85E+02 |  3.15E+02 |
 | Turbulence Kinetic Energy                  |  4.36E-04 |  4.77E+00 |
 | Velocity                                   |  4.24E-01 |  8.72E+00 |
 | Dynamic Viscosity                          |  8.90E-04 |  8.90E-04 |
 | Eddy Viscosity                             |  2.00E-03 |  3.60E+02 |
 +--------------------------------------------------------------------+

 +--------------------------------------------------------------------+
 |                 CPU Requirements of Interpolation                  |
 +--------------------------------------------------------------------+

 Interpolation Step              Time    Percentage
                                (secs.   %total)
 ----------------------------------------------------------------------
 Tree Setup                     3.67E-01    9.5 %
 Interpolation                  1.46E+00   38.0 %
 Unmatched Nodes                8.50E-02    2.2 %
 Miscellaneous                  1.94E+00   50.3 %
                                --------
 Total                          3.85E+00

 +--------------------------------------------------------------------+
 |                   Job Information at End of Run                    |
 +--------------------------------------------------------------------+

 Host computer:  ENPC-LAB137 (PID:12376)

 Job finished:   Thu Dec  6 14:36:11 2018

 Total wall clock time: 3.856E+00 seconds
             or: (          0:         0:         0:     3.856 )
                 (       Days:     Hours:   Minutes:   Seconds )

 
 +--------------------------------------------------------------------+
 |                                                                    |
 |                               Solver                               |
 |                                                                    |
 +--------------------------------------------------------------------+
 



 +--------------------------------------------------------------------+
 |                                                                    |
 |                       ANSYS(R) CFX(R) Solver                       |
 |                                                                    |
 | Release 19.1                                                       |
 | Build 19.1 2018-04-17T13:27:50.069000                              |
 | Tue Apr 17 15:02:11 GMTDT 2018                                     |
 |                                                                    |
 |                        Executable Attributes                       |
 |                                                                    |
 |           single-64bit-int32-archfort-optimised-std-lcomp          |
 |                                                                    |
 | (C) 1996-2018 ANSYS, Inc.                                          |
 |                                                                    |
 | All rights reserved. Unauthorized use, distribution or duplication |
 | is prohibited. This product is subject to U.S. laws governing      |
 | export and re-export. For full Legal Notice, see documentation.    |
 +--------------------------------------------------------------------+




 +--------------------------------------------------------------------+
 |                  Job Information at Start of Run                   |
 +--------------------------------------------------------------------+

 Run mode:       serial run

 Host computer:  ENPC-LAB137 (PID:9024)

 Job started:    Thu Dec  6 14:36:14 2018

 +--------------------------------------------------------------------+
 |                        License Information                         |
 +--------------------------------------------------------------------+
 
 License Cap:    ANSYS CFX Solver (Max 128K Nodes)
 License Cap:    ANSYS CFX Solver (Introductory)
 License ID:     VIGO_campus_bath_ac_uk-SYSTEM-1456-880989


 +--------------------------------------------------------------------+
 |        Memory Allocated for Run  (Actual usage may be less)        |
 +--------------------------------------------------------------------+

           | Real       | Integer    | Character | Logical  | Double
 ----------+------------+------------+-----------+----------+----------
 Mwords    |      13.00 |       4.12 |      7.26 |     0.12 |     0.56
 Mbytes    |      49.60 |      15.73 |      6.92 |     0.46 |     4.30
 ----------+------------+------------+-----------+----------+----------


 +--------------------------------------------------------------------+
 |                  Host Memory Information (Mbytes)                  |
 +--------------------------------------------------------------------+
 |          Host           |     System     |   Allocated    |   %    |
 +-------------------------+----------------+----------------+--------+
 | ENPC-LAB137             |     16240.97   |        77.01   |   0.47 |
 +-------------------------+----------------+----------------+--------+


 +--------------------------------------------------------------------+
 |                     ****** Notice ******                           |
 | The Wall Heat Transfer Coefficient written to the results file for |
 | any turbulent phase with heat transfer is based on the turbulent   |
 | wall function coefficient. It is consistent with the Wall Heat Flux|
 | the wall temperature, and the Wall Adjacent Temperature            |
 | (near-wall temperature).  If you would like it to be based on a    |
 | user-specified bulk temperature instead, please set the expert     |
 | parameter "tbulk for htc = <value>".                               |
 +--------------------------------------------------------------------+

 +--------------------------------------------------------------------+
 |                      Topology Simplification                       |
 +--------------------------------------------------------------------+

 +--------------------------------------------------------------------+
 |                       ****** Warning ******                        |
 |                                                                    |
 | Topology simplification is activated with the following            |
 | restrictions:                                                      |
 |                                                                    |
 | - Mesh regions referenced only within User Fortran and NOT         |
 |   in the command file will cause the solver to stop.               |
 | - The solver will stop during any "Edit Run in Progress" step      |
 |   if new 2D regions are referenced.                                |
 +--------------------------------------------------------------------+

 +--------------------------------------------------------------------+
 |                          Mesh Statistics                           |
 +--------------------------------------------------------------------+
 | Domain Name          | Orthog. Angle | Exp. Factor  | Aspect Ratio |
 +----------------------+---------------+--------------+--------------+
 |                      | Minimum [deg] |   Maximum    |    Maximum   |
 +----------------------+---------------+--------------+--------------+
 | Default Domain       |       49.0 ok |         7 ok |         5 OK |
 +----------------------+---------------+--------------+--------------+
 |                      |  %!  %ok  %OK | %!  %ok  %OK | %!  %ok  %OK |
 +----------------------+---------------+--------------+--------------+
 | Default Domain       |   0   <1  100 |  0   <1  100 |  0    0  100 |
 +----------------------+---------------+--------------+--------------+

 Domain Name : Default Domain

     Total Number of Nodes                                =       17346

     Total Number of Elements                             =       92651
         Total Number of Tetrahedrons                     =       92651

     Total Number of Faces                                =        7174

 +--------------------------------------------------------------------+
 |      Initial Conditions Supplied by Fields in the Input Files      |
 +--------------------------------------------------------------------+

 Domain Name : Default Domain
     Courant Number
     Eddy Viscosity
     Pressure
     Specific Heat Capacity at Constant Pressure
     Static Enthalpy
     Static Entropy
     Temperature
     Turbulence Eddy Dissipation
     Turbulence Eddy Frequency
     Turbulence Kinetic Energy
     Velocity

 +--------------------------------------------------------------------+
 |                     Average Scale Information                      |
 +--------------------------------------------------------------------+

 Domain Name : Default Domain
     Global Length                                         = 3.2734E+00
     Minimum Extent                                        = 4.0000E+00
     Maximum Extent                                        = 6.0000E+00
     Density                                               = 9.9700E+02
     Dynamic Viscosity                                     = 8.8990E-04
     Velocity                                              = 6.6291E+00
     Advection Time                                        = 4.9379E-01
     Reynolds Number                                       = 2.4311E+07
     Thermal Conductivity                                  = 6.0690E-01
     Specific Heat Capacity at Constant Pressure           = 4.1817E+03
     Prandtl Number                                        = 6.1316E+00
     Temperature Range                                     = 3.0125E+01

 +--------------------------------------------------------------------+
 |                Checking for Isolated Fluid Regions                 |
 +--------------------------------------------------------------------+
 
 No isolated fluid regions were found.

 +--------------------------------------------------------------------+
 |              The Equations Solved in This Calculation              |
 +--------------------------------------------------------------------+

 Subsystem : Momentum and Mass

   U-Mom
   V-Mom
   W-Mom
   P-Mass

 Subsystem : Heat Transfer

   H-Energy

 Subsystem : TurbKE and Diss.K

   K-TurbKE
   E-Diss.K
                   
 CFD Solver started: Thu Dec  6 14:36:17 2018


 +--------------------------------------------------------------------+
 |                       Convergence History                          |
 +--------------------------------------------------------------------+

 ======================================================================
 |                        Timescale Information                       |
 ----------------------------------------------------------------------
 |       Equation       |         Type          |      Timescale      |
 +----------------------+-----------------------+---------------------+
 | U-Mom                | Auto Timescale        |     1.54461E-01     |
 | V-Mom                | Auto Timescale        |     1.54461E-01     |
 | W-Mom                | Auto Timescale        |     1.54461E-01     |
 +----------------------+-----------------------+---------------------+
 | H-Energy             | Auto Timescale        |     1.54461E-01     |
 +----------------------+-----------------------+---------------------+
 | K-TurbKE             | Auto Timescale        |     1.54461E-01     |
 | E-Diss.K             | Auto Timescale        |     1.54461E-01     |
 +----------------------+-----------------------+---------------------+

 ======================================================================
 OUTER LOOP ITERATION =  453 (    1) CPU SECONDS = 3.270E+02 (3.565E+00)
 ----------------------------------------------------------------------
 |       Equation       | Rate | RMS Res | Max Res |  Linear Solution |
 +----------------------+------+---------+---------+------------------+
 | U-Mom                | 0.00 | 7.5E-03 | 1.9E-01 |       5.6E-02  OK|
 | V-Mom                | 0.00 | 5.9E-03 | 1.1E-01 |       7.0E-02  OK|
 | W-Mom                | 0.00 | 3.6E-03 | 5.8E-02 |       7.0E-02  OK|
 | P-Mass               | 0.00 | 5.3E-03 | 8.7E-02 |  4.7  8.7E-02  OK|
 +----------------------+------+---------+---------+------------------+
 | H-Energy             | 0.00 | 1.7E-02 | 5.3E-01 |  5.4  1.9E-02  OK|
 +----------------------+------+---------+---------+------------------+
 | K-TurbKE             | 0.00 | 1.1E-02 | 1.1E-01 |  5.4  3.3E-02  OK|
 | E-Diss.K             | 0.00 | 6.8E-02 | 1.0E+00 |  8.2  5.6E-03  OK|
 +----------------------+------+---------+---------+------------------+

 ======================================================================
 OUTER LOOP ITERATION =  454 (    2) CPU SECONDS = 3.280E+02 (4.547E+00)
 ----------------------------------------------------------------------
 |       Equation       | Rate | RMS Res | Max Res |  Linear Solution |
 +----------------------+------+---------+---------+------------------+
 | U-Mom                | 0.50 | 3.7E-03 | 1.0E-01 |       3.5E-02  OK|
 | V-Mom                | 0.73 | 4.3E-03 | 3.1E-02 |       4.1E-02  OK|
 | W-Mom                | 0.45 | 1.6E-03 | 2.2E-02 |       3.4E-02  OK|
 | P-Mass               | 0.35 | 1.9E-03 | 2.3E-02 |  8.5  3.5E-02  OK|
 +----------------------+------+---------+---------+------------------+
 | H-Energy             | 0.23 | 3.9E-03 | 9.5E-02 |  5.4  4.1E-02  OK|
 +----------------------+------+---------+---------+------------------+
 | K-TurbKE             | 1.55 | 1.7E-02 | 1.7E-01 |  5.4  2.0E-02  OK|
 | E-Diss.K             | 1.35 | 9.2E-02 | 1.3E+00 |  8.2  1.8E-03  OK|
 +----------------------+------+---------+---------+------------------+

 ======================================================================
 OUTER LOOP ITERATION =  455 (    3) CPU SECONDS = 3.289E+02 (5.478E+00)
 ----------------------------------------------------------------------
 |       Equation       | Rate | RMS Res | Max Res |  Linear Solution |
 +----------------------+------+---------+---------+------------------+
 | U-Mom                | 0.70 | 2.6E-03 | 6.4E-02 |       2.6E-02  OK|
 | V-Mom                | 1.19 | 5.2E-03 | 3.9E-02 |       3.5E-02  OK|
 | W-Mom                | 0.74 | 1.2E-03 | 2.0E-02 |       3.7E-02  OK|
 | P-Mass               | 0.43 | 8.0E-04 | 6.5E-03 |  8.5  4.8E-02  OK|
 +----------------------+------+---------+---------+------------------+
 | H-Energy             | 0.65 | 2.5E-03 | 5.2E-02 |  5.4  4.8E-02  OK|
 +----------------------+------+---------+---------+------------------+
 | K-TurbKE             | 0.51 | 8.8E-03 | 9.7E-02 |  5.4  2.9E-02  OK|
 | E-Diss.K             | 0.64 | 5.9E-02 | 8.0E-01 |  8.2  3.7E-03  OK|
 +----------------------+------+---------+---------+------------------+

 ======================================================================
 |                        Timescale Information                       |
 ----------------------------------------------------------------------
 |       Equation       |         Type          |      Timescale      |
 +----------------------+-----------------------+---------------------+
 | U-Mom                | Auto Timescale        |     1.67177E-01     |
 | V-Mom                | Auto Timescale        |     1.67177E-01     |
 | W-Mom                | Auto Timescale        |     1.67177E-01     |
 +----------------------+-----------------------+---------------------+
 | H-Energy             | Auto Timescale        |     1.67177E-01     |
 +----------------------+-----------------------+---------------------+
 | K-TurbKE             | Auto Timescale        |     1.67177E-01     |
 | E-Diss.K             | Auto Timescale        |     1.67177E-01     |
 +----------------------+-----------------------+---------------------+

 ======================================================================
 OUTER LOOP ITERATION =  456 (    4) CPU SECONDS = 3.297E+02 (6.310E+00)
 ----------------------------------------------------------------------
 |       Equation       | Rate | RMS Res | Max Res |  Linear Solution |
 +----------------------+------+---------+---------+------------------+
 | U-Mom                | 0.63 | 1.6E-03 | 4.1E-02 |       2.4E-02  OK|
 | V-Mom                | 0.76 | 3.9E-03 | 3.0E-02 |       3.5E-02  OK|
 | W-Mom                | 0.67 | 8.1E-04 | 1.6E-02 |       4.0E-02  OK|
 | P-Mass               | 0.56 | 4.5E-04 | 6.0E-03 |  8.5  7.9E-02  OK|
 +----------------------+------+---------+---------+------------------+
 | H-Energy             | 0.84 | 2.1E-03 | 6.5E-02 |  5.4  5.1E-02  OK|
 +----------------------+------+---------+---------+------------------+
 | K-TurbKE             | 0.59 | 5.2E-03 | 5.5E-02 |  5.4  3.8E-02  OK|
 | E-Diss.K             | 0.57 | 3.4E-02 | 4.0E-01 |  8.2  5.3E-03  OK|
 +----------------------+------+---------+---------+------------------+

 ======================================================================
 OUTER LOOP ITERATION =  457 (    5) CPU SECONDS = 3.306E+02 (7.125E+00)
 ----------------------------------------------------------------------
 |       Equation       | Rate | RMS Res | Max Res |  Linear Solution |
 +----------------------+------+---------+---------+------------------+
 | U-Mom                | 0.93 | 1.5E-03 | 5.1E-02 |       2.0E-02  OK|
 | V-Mom                | 0.52 | 2.0E-03 | 1.8E-02 |       3.1E-02  OK|
 | W-Mom                | 0.71 | 5.7E-04 | 1.1E-02 |       4.1E-02  OK|
 | P-Mass               | 0.59 | 2.6E-04 | 4.2E-03 |  8.5  7.4E-02  OK|
 +----------------------+------+---------+---------+------------------+
 | H-Energy             | 0.86 | 1.8E-03 | 4.2E-02 |  5.4  5.0E-02  OK|
 +----------------------+------+---------+---------+------------------+
 | K-TurbKE             | 0.62 | 3.3E-03 | 3.1E-02 |  5.4  4.1E-02  OK|
 | E-Diss.K             | 0.45 | 1.5E-02 | 1.5E-01 |  8.2  7.0E-03  OK|
 +----------------------+------+---------+---------+------------------+

 ======================================================================
 OUTER LOOP ITERATION =  458 (    6) CPU SECONDS = 3.314E+02 (7.947E+00)
 ----------------------------------------------------------------------
 |       Equation       | Rate | RMS Res | Max Res |  Linear Solution |
 +----------------------+------+---------+---------+------------------+
 | U-Mom                | 0.93 | 1.4E-03 | 3.1E-02 |       2.0E-02  OK|
 | V-Mom                | 0.49 | 1.0E-03 | 1.1E-02 |       2.9E-02  OK|
 | W-Mom                | 0.79 | 4.5E-04 | 7.2E-03 |       4.2E-02  OK|
 | P-Mass               | 0.64 | 1.7E-04 | 2.4E-03 |  8.5  5.1E-02  OK|
 +----------------------+------+---------+---------+------------------+
 | H-Energy             | 0.95 | 1.7E-03 | 3.5E-02 |  5.4  4.6E-02  OK|
 +----------------------+------+---------+---------+------------------+
 | K-TurbKE             | 0.66 | 2.2E-03 | 1.7E-02 |  5.4  4.3E-02  OK|
 | E-Diss.K             | 0.49 | 7.5E-03 | 6.9E-02 |  8.2  7.9E-03  OK|
 +----------------------+------+---------+---------+------------------+

 ======================================================================
 OUTER LOOP ITERATION =  459 (    7) CPU SECONDS = 3.322E+02 (8.763E+00)
 ----------------------------------------------------------------------
 |       Equation       | Rate | RMS Res | Max Res |  Linear Solution |
 +----------------------+------+---------+---------+------------------+
 | U-Mom                | 0.82 | 1.2E-03 | 2.5E-02 |       2.6E-02  OK|
 | V-Mom                | 1.10 | 1.1E-03 | 9.7E-03 |       3.6E-02  OK|
 | W-Mom                | 0.82 | 3.7E-04 | 5.3E-03 |       4.0E-02  OK|
 | P-Mass               | 0.73 | 1.2E-04 | 1.5E-03 |  8.5  3.7E-02  OK|
 +----------------------+------+---------+---------+------------------+
 | H-Energy             | 0.94 | 1.6E-03 | 3.2E-02 |  5.4  4.3E-02  OK|
 +----------------------+------+---------+---------+------------------+
 | K-TurbKE             | 0.71 | 1.5E-03 | 1.1E-02 |  5.4  4.7E-02  OK|
 | E-Diss.K             | 0.56 | 4.2E-03 | 6.8E-02 |  8.2  7.1E-03  OK|
 +----------------------+------+---------+---------+------------------+

 ======================================================================
 OUTER LOOP ITERATION =  460 (    8) CPU SECONDS = 3.331E+02 (9.694E+00)
 ----------------------------------------------------------------------
 |       Equation       | Rate | RMS Res | Max Res |  Linear Solution |
 +----------------------+------+---------+---------+------------------+
 | U-Mom                | 0.78 | 9.0E-04 | 1.8E-02 |       3.4E-02  OK|
 | V-Mom                | 0.99 | 1.1E-03 | 1.1E-02 |       4.5E-02  OK|
 | W-Mom                | 0.82 | 3.0E-04 | 4.3E-03 |       3.9E-02  OK|
 | P-Mass               | 0.85 | 1.0E-04 | 1.1E-03 |  8.5  4.9E-02  OK|
 +----------------------+------+---------+---------+------------------+
 | H-Energy             | 0.90 | 1.5E-03 | 2.8E-02 |  5.4  4.1E-02  OK|
 +----------------------+------+---------+---------+------------------+
 | K-TurbKE             | 0.78 | 1.2E-03 | 9.4E-03 |  5.4  5.3E-02  OK|
 | E-Diss.K             | 0.66 | 2.8E-03 | 6.1E-02 |  8.2  6.5E-03  OK|
 +----------------------+------+---------+---------+------------------+

 ======================================================================
 |                        Timescale Information                       |
 ----------------------------------------------------------------------
 |       Equation       |         Type          |      Timescale      |
 +----------------------+-----------------------+---------------------+
 | U-Mom                | Auto Timescale        |     1.69489E-01     |
 | V-Mom                | Auto Timescale        |     1.69489E-01     |
 | W-Mom                | Auto Timescale        |     1.69489E-01     |
 +----------------------+-----------------------+---------------------+
 | H-Energy             | Auto Timescale        |     1.69489E-01     |
 +----------------------+-----------------------+---------------------+
 | K-TurbKE             | Auto Timescale        |     1.69489E-01     |
 | E-Diss.K             | Auto Timescale        |     1.69489E-01     |
 +----------------------+-----------------------+---------------------+

 ======================================================================
 OUTER LOOP ITERATION =  461 (    9) CPU SECONDS = 3.340E+02 (1.054E+01)
 ----------------------------------------------------------------------
 |       Equation       | Rate | RMS Res | Max Res |  Linear Solution |
 +----------------------+------+---------+---------+------------------+
 | U-Mom                | 0.80 | 7.2E-04 | 1.5E-02 |       4.2E-02  OK|
 | V-Mom                | 0.80 | 8.7E-04 | 8.3E-03 |       5.2E-02  OK|
 | W-Mom                | 0.81 | 2.5E-04 | 4.4E-03 |       4.0E-02  OK|
 | P-Mass               | 0.93 | 9.8E-05 | 1.2E-03 |  8.5  5.9E-02  OK|
 +----------------------+------+---------+---------+------------------+
 | H-Energy             | 0.86 | 1.3E-03 | 2.3E-02 |  5.4  3.9E-02  OK|
 +----------------------+------+---------+---------+------------------+
 | K-TurbKE             | 0.89 | 1.1E-03 | 7.7E-03 |  5.4  5.6E-02  OK|
 | E-Diss.K             | 0.83 | 2.3E-03 | 5.4E-02 |  8.2  8.1E-03  OK|
 +----------------------+------+---------+---------+------------------+

 ======================================================================
 OUTER LOOP ITERATION =  462 (   10) CPU SECONDS = 3.348E+02 (1.139E+01)
 ----------------------------------------------------------------------
 |       Equation       | Rate | RMS Res | Max Res |  Linear Solution |
 +----------------------+------+---------+---------+------------------+
 | U-Mom                | 0.83 | 6.0E-04 | 1.0E-02 |       4.8E-02  OK|
 | V-Mom                | 0.69 | 6.0E-04 | 5.4E-03 |       5.7E-02  OK|
 | W-Mom                | 0.84 | 2.1E-04 | 4.5E-03 |       4.4E-02  OK|
 | P-Mass               | 0.98 | 9.5E-05 | 1.3E-03 |  8.5  5.6E-02  OK|
 +----------------------+------+---------+---------+------------------+
 | H-Energy             | 0.84 | 1.1E-03 | 1.9E-02 |  5.4  3.8E-02  OK|
 +----------------------+------+---------+---------+------------------+
 | K-TurbKE             | 0.97 | 1.0E-03 | 6.4E-03 |  5.4  5.7E-02  OK|
 | E-Diss.K             | 0.97 | 2.2E-03 | 4.9E-02 |  8.2  9.3E-03  OK|
 +----------------------+------+---------+---------+------------------+

 ======================================================================
 OUTER LOOP ITERATION =  463 (   11) CPU SECONDS = 3.357E+02 (1.223E+01)
 ----------------------------------------------------------------------
 |       Equation       | Rate | RMS Res | Max Res |  Linear Solution |
 +----------------------+------+---------+---------+------------------+
 | U-Mom                | 0.84 | 5.0E-04 | 7.1E-03 |       5.4E-02  OK|
 | V-Mom                | 0.73 | 4.4E-04 | 4.4E-03 |       5.9E-02  OK|
 | W-Mom                | 0.87 | 1.8E-04 | 3.6E-03 |       4.8E-02  OK|
 | P-Mass               | 0.98 | 9.3E-05 | 1.3E-03 |  8.5  5.3E-02  OK|
 +----------------------+------+---------+---------+------------------+
 | H-Energy             | 0.84 | 9.0E-04 | 1.6E-02 |  5.4  3.8E-02  OK|
 +----------------------+------+---------+---------+------------------+
 | K-TurbKE             | 1.00 | 1.0E-03 | 5.8E-03 |  5.4  5.7E-02  OK|
 | E-Diss.K             | 1.02 | 2.3E-03 | 4.6E-02 |  8.2  1.0E-02  OK|
 +----------------------+------+---------+---------+------------------+

 ======================================================================
 OUTER LOOP ITERATION =  464 (   12) CPU SECONDS = 3.365E+02 (1.307E+01)
 ----------------------------------------------------------------------
 |       Equation       | Rate | RMS Res | Max Res |  Linear Solution |
 +----------------------+------+---------+---------+------------------+
 | U-Mom                | 0.82 | 4.1E-04 | 6.2E-03 |       5.8E-02  OK|
 | V-Mom                | 0.86 | 3.8E-04 | 3.7E-03 |       6.0E-02  OK|
 | W-Mom                | 0.90 | 1.6E-04 | 3.6E-03 |       4.9E-02  OK|
 | P-Mass               | 0.96 | 9.0E-05 | 1.2E-03 |  8.5  5.9E-02  OK|
 +----------------------+------+---------+---------+------------------+
 | H-Energy             | 0.85 | 7.6E-04 | 1.5E-02 |  5.4  3.8E-02  OK|
 +----------------------+------+---------+---------+------------------+
 | K-TurbKE             | 1.00 | 1.0E-03 | 5.5E-03 |  5.4  5.7E-02  OK|
 | E-Diss.K             | 1.00 | 2.3E-03 | 4.4E-02 |  8.2  1.1E-02  OK|
 +----------------------+------+---------+---------+------------------+

 ======================================================================
 OUTER LOOP ITERATION =  465 (   13) CPU SECONDS = 3.374E+02 (1.391E+01)
 ----------------------------------------------------------------------
 |       Equation       | Rate | RMS Res | Max Res |  Linear Solution |
 +----------------------+------+---------+---------+------------------+
 | U-Mom                | 0.81 | 3.3E-04 | 5.3E-03 |       6.2E-02  OK|
 | V-Mom                | 0.89 | 3.4E-04 | 3.1E-03 |       6.1E-02  OK|
 | W-Mom                | 0.92 | 1.5E-04 | 2.7E-03 |       4.8E-02  OK|
 | P-Mass               | 0.94 | 8.4E-05 | 1.1E-03 |  8.5  6.8E-02  OK|
 +----------------------+------+---------+---------+------------------+
 | H-Energy             | 0.85 | 6.5E-04 | 1.4E-02 |  5.4  3.8E-02  OK|
 +----------------------+------+---------+---------+------------------+
 | K-TurbKE             | 0.99 | 1.0E-03 | 5.2E-03 |  5.4  5.7E-02  OK|
 | E-Diss.K             | 0.99 | 2.2E-03 | 4.1E-02 |  8.2  1.1E-02  OK|
 +----------------------+------+---------+---------+------------------+

 ======================================================================
 |                        Timescale Information                       |
 ----------------------------------------------------------------------
 |       Equation       |         Type          |      Timescale      |
 +----------------------+-----------------------+---------------------+
 | U-Mom                | Auto Timescale        |     1.68389E-01     |
 | V-Mom                | Auto Timescale        |     1.68389E-01     |
 | W-Mom                | Auto Timescale        |     1.68389E-01     |
 +----------------------+-----------------------+---------------------+
 | H-Energy             | Auto Timescale        |     1.68389E-01     |
 +----------------------+-----------------------+---------------------+
 | K-TurbKE             | Auto Timescale        |     1.68389E-01     |
 | E-Diss.K             | Auto Timescale        |     1.68389E-01     |
 +----------------------+-----------------------+---------------------+

 ======================================================================
 OUTER LOOP ITERATION =  466 (   14) CPU SECONDS = 3.383E+02 (1.486E+01)
 ----------------------------------------------------------------------
 |       Equation       | Rate | RMS Res | Max Res |  Linear Solution |
 +----------------------+------+---------+---------+------------------+
 | U-Mom                | 0.83 | 2.8E-04 | 3.4E-03 |       6.4E-02  OK|
 | V-Mom                | 0.88 | 3.0E-04 | 3.0E-03 |       6.1E-02  OK|
 | W-Mom                | 0.93 | 1.4E-04 | 2.5E-03 |       4.5E-02  OK|
 | P-Mass               | 0.92 | 7.8E-05 | 1.0E-03 |  8.5  7.5E-02  OK|
 +----------------------+------+---------+---------+------------------+
 | H-Energy             | 0.88 | 5.7E-04 | 1.1E-02 |  5.4  3.9E-02  OK|
 +----------------------+------+---------+---------+------------------+
 | K-TurbKE             | 0.98 | 1.0E-03 | 4.8E-03 |  5.4  5.6E-02  OK|
 | E-Diss.K             | 0.96 | 2.1E-03 | 3.8E-02 |  8.2  1.1E-02  OK|
 +----------------------+------+---------+---------+------------------+

 ======================================================================
 OUTER LOOP ITERATION =  467 (   15) CPU SECONDS = 3.392E+02 (1.580E+01)
 ----------------------------------------------------------------------
 |       Equation       | Rate | RMS Res | Max Res |  Linear Solution |
 +----------------------+------+---------+---------+------------------+
 | U-Mom                | 0.88 | 2.5E-04 | 3.7E-03 |       6.5E-02  OK|
 | V-Mom                | 0.89 | 2.6E-04 | 2.7E-03 |       6.1E-02  OK|
 | W-Mom                | 0.94 | 1.3E-04 | 2.4E-03 |       4.5E-02  OK|
 | P-Mass               | 0.91 | 7.0E-05 | 8.9E-04 |  8.5  8.0E-02  OK|
 +----------------------+------+---------+---------+------------------+
 | H-Energy             | 0.90 | 5.2E-04 | 9.2E-03 |  5.4  3.9E-02  OK|
 +----------------------+------+---------+---------+------------------+
 | K-TurbKE             | 0.98 | 9.8E-04 | 4.4E-03 |  5.4  5.6E-02  OK|
 | E-Diss.K             | 0.95 | 2.0E-03 | 3.5E-02 |  8.2  1.2E-02  OK|
 +----------------------+------+---------+---------+------------------+

 ======================================================================
 OUTER LOOP ITERATION =  468 (   16) CPU SECONDS = 3.402E+02 (1.677E+01)
 ----------------------------------------------------------------------
 |       Equation       | Rate | RMS Res | Max Res |  Linear Solution |
 +----------------------+------+---------+---------+------------------+
 | U-Mom                | 0.92 | 2.3E-04 | 3.8E-03 |       6.5E-02  OK|
 | V-Mom                | 0.92 | 2.4E-04 | 2.5E-03 |       6.0E-02  OK|
 | W-Mom                | 0.95 | 1.2E-04 | 2.3E-03 |       4.7E-02  OK|
 | P-Mass               | 0.90 | 6.3E-05 | 7.7E-04 |  8.5  8.3E-02  OK|
 +----------------------+------+---------+---------+------------------+
 | H-Energy             | 0.93 | 4.8E-04 | 8.1E-03 |  5.4  4.0E-02  OK|
 +----------------------+------+---------+---------+------------------+
 | K-TurbKE             | 0.97 | 9.5E-04 | 4.0E-03 |  5.4  5.5E-02  OK|
 | E-Diss.K             | 0.94 | 1.9E-03 | 3.1E-02 |  8.2  1.2E-02  OK|
 +----------------------+------+---------+---------+------------------+

 ======================================================================
 OUTER LOOP ITERATION =  469 (   17) CPU SECONDS = 3.411E+02 (1.768E+01)
 ----------------------------------------------------------------------
 |       Equation       | Rate | RMS Res | Max Res |  Linear Solution |
 +----------------------+------+---------+---------+------------------+
 | U-Mom                | 0.93 | 2.1E-04 | 3.7E-03 |       6.5E-02  OK|
 | V-Mom                | 0.94 | 2.3E-04 | 2.2E-03 |       5.8E-02  OK|
 | W-Mom                | 0.96 | 1.2E-04 | 2.0E-03 |       5.2E-02  OK|
 | P-Mass               | 0.90 | 5.7E-05 | 6.5E-04 |  8.5  8.6E-02  OK|
 +----------------------+------+---------+---------+------------------+
 | H-Energy             | 0.96 | 4.6E-04 | 7.8E-03 |  5.4  4.2E-02  OK|
 +----------------------+------+---------+---------+------------------+
 | K-TurbKE             | 0.97 | 9.2E-04 | 3.6E-03 |  5.4  5.5E-02  OK|
 | E-Diss.K             | 0.94 | 1.8E-03 | 2.8E-02 |  8.2  1.2E-02  OK|
 +----------------------+------+---------+---------+------------------+

 ======================================================================
 OUTER LOOP ITERATION =  470 (   18) CPU SECONDS = 3.420E+02 (1.855E+01)
 ----------------------------------------------------------------------
 |       Equation       | Rate | RMS Res | Max Res |  Linear Solution |
 +----------------------+------+---------+---------+------------------+
 | U-Mom                | 0.93 | 2.0E-04 | 3.4E-03 |       6.4E-02  OK|
 | V-Mom                | 0.96 | 2.2E-04 | 2.1E-03 |       5.6E-02  OK|
 | W-Mom                | 0.97 | 1.1E-04 | 1.6E-03 |       5.7E-02  OK|
 | P-Mass               | 0.90 | 5.1E-05 | 5.7E-04 |  8.5  8.7E-02  OK|
 +----------------------+------+---------+---------+------------------+
 | H-Energy             | 0.98 | 4.5E-04 | 8.3E-03 |  5.4  4.3E-02  OK|
 +----------------------+------+---------+---------+------------------+
 | K-TurbKE             | 0.96 | 8.9E-04 | 3.7E-03 |  5.4  5.5E-02  OK|
 | E-Diss.K             | 0.94 | 1.7E-03 | 2.5E-02 |  8.2  1.3E-02  OK|
 +----------------------+------+---------+---------+------------------+

 ======================================================================
 |                        Timescale Information                       |
 ----------------------------------------------------------------------
 |       Equation       |         Type          |      Timescale      |
 +----------------------+-----------------------+---------------------+
 | U-Mom                | Auto Timescale        |     1.66926E-01     |
 | V-Mom                | Auto Timescale        |     1.66926E-01     |
 | W-Mom                | Auto Timescale        |     1.66926E-01     |
 +----------------------+-----------------------+---------------------+
 | H-Energy             | Auto Timescale        |     1.66926E-01     |
 +----------------------+-----------------------+---------------------+
 | K-TurbKE             | Auto Timescale        |     1.66926E-01     |
 | E-Diss.K             | Auto Timescale        |     1.66926E-01     |
 +----------------------+-----------------------+---------------------+

 ======================================================================
 OUTER LOOP ITERATION =  471 (   19) CPU SECONDS = 3.428E+02 (1.939E+01)
 ----------------------------------------------------------------------
 |       Equation       | Rate | RMS Res | Max Res |  Linear Solution |
 +----------------------+------+---------+---------+------------------+
 | U-Mom                | 0.94 | 1.8E-04 | 2.7E-03 |       6.2E-02  OK|
 | V-Mom                | 0.97 | 2.1E-04 | 3.0E-03 |       5.3E-02  OK|
 | W-Mom                | 0.98 | 1.1E-04 | 1.3E-03 |       5.9E-02  OK|
 | P-Mass               | 0.91 | 4.7E-05 | 5.1E-04 |  8.5  8.7E-02  OK|
 +----------------------+------+---------+---------+------------------+
 | H-Energy             | 0.99 | 4.5E-04 | 8.2E-03 |  5.4  4.3E-02  OK|
 +----------------------+------+---------+---------+------------------+
 | K-TurbKE             | 0.96 | 8.5E-04 | 3.7E-03 |  5.4  5.4E-02  OK|
 | E-Diss.K             | 0.93 | 1.6E-03 | 2.1E-02 |  8.2  1.3E-02  OK|
 +----------------------+------+---------+---------+------------------+

 ======================================================================
 OUTER LOOP ITERATION =  472 (   20) CPU SECONDS = 3.437E+02 (2.023E+01)
 ----------------------------------------------------------------------
 |       Equation       | Rate | RMS Res | Max Res |  Linear Solution |
 +----------------------+------+---------+---------+------------------+
 | U-Mom                | 0.95 | 1.7E-04 | 2.3E-03 |       6.1E-02  OK|
 | V-Mom                | 0.97 | 2.0E-04 | 3.7E-03 |       5.0E-02  OK|
 | W-Mom                | 0.99 | 1.1E-04 | 1.1E-03 |       6.1E-02  OK|
 | P-Mass               | 0.92 | 4.3E-05 | 4.5E-04 |  8.5  8.7E-02  OK|
 +----------------------+------+---------+---------+------------------+
 | H-Energy             | 1.00 | 4.5E-04 | 7.8E-03 |  5.4  4.3E-02  OK|
 +----------------------+------+---------+---------+------------------+
 | K-TurbKE             | 0.96 | 8.2E-04 | 3.7E-03 |  5.4  5.4E-02  OK|
 | E-Diss.K             | 0.94 | 1.5E-03 | 1.9E-02 |  8.2  1.3E-02  OK|
 +----------------------+------+---------+---------+------------------+

 ======================================================================
 OUTER LOOP ITERATION =  473 (   21) CPU SECONDS = 3.445E+02 (2.109E+01)
 ----------------------------------------------------------------------
 |       Equation       | Rate | RMS Res | Max Res |  Linear Solution |
 +----------------------+------+---------+---------+------------------+
 | U-Mom                | 0.96 | 1.7E-04 | 2.1E-03 |       5.9E-02  OK|
 | V-Mom                | 0.97 | 2.0E-04 | 4.1E-03 |       4.8E-02  OK|
 | W-Mom                | 1.00 | 1.1E-04 | 1.1E-03 |       6.1E-02  OK|
 | P-Mass               | 0.93 | 3.9E-05 | 3.9E-04 |  8.5  8.6E-02  OK|
 +----------------------+------+---------+---------+------------------+
 | H-Energy             | 1.02 | 4.5E-04 | 7.9E-03 |  5.4  4.4E-02  OK|
 +----------------------+------+---------+---------+------------------+
 | K-TurbKE             | 0.96 | 7.8E-04 | 3.7E-03 |  5.4  5.4E-02  OK|
 | E-Diss.K             | 0.94 | 1.4E-03 | 1.6E-02 |  8.2  1.3E-02  OK|
 +----------------------+------+---------+---------+------------------+

 ======================================================================
 OUTER LOOP ITERATION =  474 (   22) CPU SECONDS = 3.454E+02 (2.197E+01)
 ----------------------------------------------------------------------
 |       Equation       | Rate | RMS Res | Max Res |  Linear Solution |
 +----------------------+------+---------+---------+------------------+
 | U-Mom                | 0.98 | 1.6E-04 | 2.0E-03 |       5.6E-02  OK|
 | V-Mom                | 0.97 | 1.9E-04 | 4.3E-03 |       4.6E-02  OK|
 | W-Mom                | 1.02 | 1.1E-04 | 1.1E-03 |       6.0E-02  OK|
 | P-Mass               | 0.94 | 3.7E-05 | 3.4E-04 |  8.5  8.4E-02  OK|
 +----------------------+------+---------+---------+------------------+
 | H-Energy             | 1.03 | 4.7E-04 | 8.0E-03 |  5.4  4.4E-02  OK|
 +----------------------+------+---------+---------+------------------+
 | K-TurbKE             | 0.95 | 7.5E-04 | 3.9E-03 |  5.4  5.4E-02  OK|
 | E-Diss.K             | 0.95 | 1.3E-03 | 1.6E-02 |  8.2  1.3E-02  OK|
 +----------------------+------+---------+---------+------------------+

 ======================================================================
 OUTER LOOP ITERATION =  475 (   23) CPU SECONDS = 3.463E+02 (2.284E+01)
 ----------------------------------------------------------------------
 |       Equation       | Rate | RMS Res | Max Res |  Linear Solution |
 +----------------------+------+---------+---------+------------------+
 | U-Mom                | 0.99 | 1.6E-04 | 1.9E-03 |       5.3E-02  OK|
 | V-Mom                | 0.97 | 1.8E-04 | 4.1E-03 |       4.4E-02  OK|
 | W-Mom                | 1.03 | 1.1E-04 | 1.2E-03 |       5.9E-02  OK|
 | P-Mass               | 0.95 | 3.5E-05 | 3.0E-04 |  8.5  8.2E-02  OK|
 +----------------------+------+---------+---------+------------------+
 | H-Energy             | 1.04 | 4.8E-04 | 8.0E-03 |  5.4  4.4E-02  OK|
 +----------------------+------+---------+---------+------------------+
 | K-TurbKE             | 0.95 | 7.1E-04 | 4.1E-03 |  5.4  5.5E-02  OK|
 | E-Diss.K             | 0.95 | 1.3E-03 | 1.5E-02 |  8.2  1.3E-02  OK|
 +----------------------+------+---------+---------+------------------+

 ======================================================================
 |                        Timescale Information                       |
 ----------------------------------------------------------------------
 |       Equation       |         Type          |      Timescale      |
 +----------------------+-----------------------+---------------------+
 | U-Mom                | Auto Timescale        |     1.65742E-01     |
 | V-Mom                | Auto Timescale        |     1.65742E-01     |
 | W-Mom                | Auto Timescale        |     1.65742E-01     |
 +----------------------+-----------------------+---------------------+
 | H-Energy             | Auto Timescale        |     1.65742E-01     |
 +----------------------+-----------------------+---------------------+
 | K-TurbKE             | Auto Timescale        |     1.65742E-01     |
 | E-Diss.K             | Auto Timescale        |     1.65742E-01     |
 +----------------------+-----------------------+---------------------+

 ======================================================================
 OUTER LOOP ITERATION =  476 (   24) CPU SECONDS = 3.472E+02 (2.371E+01)
 ----------------------------------------------------------------------
 |       Equation       | Rate | RMS Res | Max Res |  Linear Solution |
 +----------------------+------+---------+---------+------------------+
 | U-Mom                | 1.00 | 1.6E-04 | 2.4E-03 |       4.9E-02  OK|
 | V-Mom                | 0.97 | 1.8E-04 | 3.5E-03 |       4.2E-02  OK|
 | W-Mom                | 1.03 | 1.2E-04 | 1.3E-03 |       5.8E-02  OK|
 | P-Mass               | 0.96 | 3.4E-05 | 2.8E-04 |  8.5  7.9E-02  OK|
 +----------------------+------+---------+---------+------------------+
 | H-Energy             | 1.04 | 5.0E-04 | 7.8E-03 |  5.4  4.3E-02  OK|
 +----------------------+------+---------+---------+------------------+
 | K-TurbKE             | 0.95 | 6.7E-04 | 4.3E-03 |  5.4  5.3E-02  OK|
 | E-Diss.K             | 0.94 | 1.2E-03 | 1.4E-02 |  8.2  1.3E-02  OK|
 +----------------------+------+---------+---------+------------------+

 ======================================================================
 OUTER LOOP ITERATION =  477 (   25) CPU SECONDS = 3.480E+02 (2.455E+01)
 ----------------------------------------------------------------------
 |       Equation       | Rate | RMS Res | Max Res |  Linear Solution |
 +----------------------+------+---------+---------+------------------+
 | U-Mom                | 1.00 | 1.6E-04 | 3.0E-03 |       4.5E-02  OK|
 | V-Mom                | 0.98 | 1.8E-04 | 2.7E-03 |       4.1E-02  OK|
 | W-Mom                | 1.04 | 1.2E-04 | 1.3E-03 |       5.7E-02  OK|
 | P-Mass               | 0.97 | 3.3E-05 | 2.9E-04 |  8.5  7.5E-02  OK|
 +----------------------+------+---------+---------+------------------+
 | H-Energy             | 1.04 | 5.3E-04 | 7.6E-03 |  5.4  4.2E-02  OK|
 +----------------------+------+---------+---------+------------------+
 | K-TurbKE             | 0.95 | 6.4E-04 | 4.4E-03 |  5.4  5.3E-02  OK|
 | E-Diss.K             | 0.95 | 1.1E-03 | 1.4E-02 |  8.2  1.2E-02  OK|
 +----------------------+------+---------+---------+------------------+

 ======================================================================
 OUTER LOOP ITERATION =  478 (   26) CPU SECONDS = 3.489E+02 (2.542E+01)
 ----------------------------------------------------------------------
 |       Equation       | Rate | RMS Res | Max Res |  Linear Solution |
 +----------------------+------+---------+---------+------------------+
 | U-Mom                | 1.00 | 1.6E-04 | 3.2E-03 |       4.1E-02  OK|
 | V-Mom                | 1.00 | 1.8E-04 | 1.8E-03 |       4.0E-02  OK|
 | W-Mom                | 1.04 | 1.3E-04 | 1.4E-03 |       5.6E-02  OK|
 | P-Mass               | 0.97 | 3.2E-05 | 2.9E-04 |  8.5  7.0E-02  OK|
 +----------------------+------+---------+---------+------------------+
 | H-Energy             | 1.04 | 5.5E-04 | 7.2E-03 |  5.4  4.1E-02  OK|
 +----------------------+------+---------+---------+------------------+
 | K-TurbKE             | 0.94 | 6.0E-04 | 4.4E-03 |  5.4  5.3E-02  OK|
 | E-Diss.K             | 0.95 | 1.1E-03 | 1.3E-02 |  8.2  1.2E-02  OK|
 +----------------------+------+---------+---------+------------------+

 ======================================================================
 OUTER LOOP ITERATION =  479 (   27) CPU SECONDS = 3.498E+02 (2.633E+01)
 ----------------------------------------------------------------------
 |       Equation       | Rate | RMS Res | Max Res |  Linear Solution |
 +----------------------+------+---------+---------+------------------+
 | U-Mom                | 0.99 | 1.6E-04 | 3.1E-03 |       3.7E-02  OK|
 | V-Mom                | 1.01 | 1.8E-04 | 1.8E-03 |       3.9E-02  OK|
 | W-Mom                | 1.04 | 1.3E-04 | 1.6E-03 |       5.5E-02  OK|
 | P-Mass               | 0.98 | 3.1E-05 | 2.9E-04 |  8.5  6.6E-02  OK|
 +----------------------+------+---------+---------+------------------+
 | H-Energy             | 1.04 | 5.7E-04 | 7.0E-03 |  5.4  4.1E-02  OK|
 +----------------------+------+---------+---------+------------------+
 | K-TurbKE             | 0.94 | 5.7E-04 | 4.4E-03 |  5.4  5.3E-02  OK|
 | E-Diss.K             | 0.95 | 1.0E-03 | 1.2E-02 |  8.2  1.2E-02  OK|
 +----------------------+------+---------+---------+------------------+

 ======================================================================
 OUTER LOOP ITERATION =  480 (   28) CPU SECONDS = 3.507E+02 (2.724E+01)
 ----------------------------------------------------------------------
 |       Equation       | Rate | RMS Res | Max Res |  Linear Solution |
 +----------------------+------+---------+---------+------------------+
 | U-Mom                | 1.00 | 1.6E-04 | 2.6E-03 |       3.4E-02  OK|
 | V-Mom                | 1.01 | 1.8E-04 | 1.7E-03 |       3.7E-02  OK|
 | W-Mom                | 1.03 | 1.4E-04 | 1.7E-03 |       5.4E-02  OK|
 | P-Mass               | 0.98 | 3.0E-05 | 2.7E-04 |  8.5  6.1E-02  OK|
 +----------------------+------+---------+---------+------------------+
 | H-Energy             | 1.03 | 5.9E-04 | 7.8E-03 |  5.4  4.1E-02  OK|
 +----------------------+------+---------+---------+------------------+
 | K-TurbKE             | 0.94 | 5.3E-04 | 4.3E-03 |  5.4  5.3E-02  OK|
 | E-Diss.K             | 0.95 | 9.6E-04 | 1.0E-02 |  8.2  1.2E-02  OK|
 +----------------------+------+---------+---------+------------------+

 ======================================================================
 |                        Timescale Information                       |
 ----------------------------------------------------------------------
 |       Equation       |         Type          |      Timescale      |
 +----------------------+-----------------------+---------------------+
 | U-Mom                | Auto Timescale        |     1.64854E-01     |
 | V-Mom                | Auto Timescale        |     1.64854E-01     |
 | W-Mom                | Auto Timescale        |     1.64854E-01     |
 +----------------------+-----------------------+---------------------+
 | H-Energy             | Auto Timescale        |     1.64854E-01     |
 +----------------------+-----------------------+---------------------+
 | K-TurbKE             | Auto Timescale        |     1.64854E-01     |
 | E-Diss.K             | Auto Timescale        |     1.64854E-01     |
 +----------------------+-----------------------+---------------------+

 ======================================================================
 OUTER LOOP ITERATION =  481 (   29) CPU SECONDS = 3.515E+02 (2.810E+01)
 ----------------------------------------------------------------------
 |       Equation       | Rate | RMS Res | Max Res |  Linear Solution |
 +----------------------+------+---------+---------+------------------+
 | U-Mom                | 1.00 | 1.6E-04 | 2.0E-03 |       3.3E-02  OK|
 | V-Mom                | 1.01 | 1.8E-04 | 1.7E-03 |       3.5E-02  OK|
 | W-Mom                | 1.03 | 1.4E-04 | 1.7E-03 |       5.3E-02  OK|
 | P-Mass               | 0.99 | 3.0E-05 | 2.5E-04 |  8.5  5.5E-02  OK|
 +----------------------+------+---------+---------+------------------+
 | H-Energy             | 1.02 | 6.0E-04 | 7.5E-03 |  5.4  4.2E-02  OK|
 +----------------------+------+---------+---------+------------------+
 | K-TurbKE             | 0.94 | 5.0E-04 | 4.1E-03 |  5.4  5.2E-02  OK|
 | E-Diss.K             | 0.94 | 9.1E-04 | 9.5E-03 |  8.2  1.1E-02  OK|
 +----------------------+------+---------+---------+------------------+

 ======================================================================
 OUTER LOOP ITERATION =  482 (   30) CPU SECONDS = 3.525E+02 (2.901E+01)
 ----------------------------------------------------------------------
 |       Equation       | Rate | RMS Res | Max Res |  Linear Solution |
 +----------------------+------+---------+---------+------------------+
 | U-Mom                | 1.01 | 1.6E-04 | 1.4E-03 |       3.3E-02  OK|
 | V-Mom                | 1.01 | 1.8E-04 | 1.6E-03 |       3.2E-02  OK|
 | W-Mom                | 1.03 | 1.5E-04 | 1.8E-03 |       5.2E-02  OK|
 | P-Mass               | 0.99 | 3.0E-05 | 2.2E-04 |  8.5  5.1E-02  OK|
 +----------------------+------+---------+---------+------------------+
 | H-Energy             | 1.03 | 6.2E-04 | 7.3E-03 |  5.4  4.1E-02  OK|
 +----------------------+------+---------+---------+------------------+
 | K-TurbKE             | 0.94 | 4.7E-04 | 3.9E-03 |  5.4  5.3E-02  OK|
 | E-Diss.K             | 0.94 | 8.6E-04 | 8.9E-03 |  8.2  1.1E-02  OK|
 +----------------------+------+---------+---------+------------------+

 ======================================================================
 OUTER LOOP ITERATION =  483 (   31) CPU SECONDS = 3.533E+02 (2.990E+01)
 ----------------------------------------------------------------------
 |       Equation       | Rate | RMS Res | Max Res |  Linear Solution |
 +----------------------+------+---------+---------+------------------+
 | U-Mom                | 1.02 | 1.7E-04 | 1.5E-03 |       3.4E-02  OK|
 | V-Mom                | 1.01 | 1.8E-04 | 1.6E-03 |       3.0E-02  OK|
 | W-Mom                | 1.02 | 1.5E-04 | 1.9E-03 |       5.0E-02  OK|
 | P-Mass               | 0.99 | 3.0E-05 | 2.2E-04 |  8.5  4.6E-02  OK|
 +----------------------+------+---------+---------+------------------+
 | H-Energy             | 1.02 | 6.3E-04 | 6.8E-03 |  5.4  4.2E-02  OK|
 +----------------------+------+---------+---------+------------------+
 | K-TurbKE             | 0.94 | 4.4E-04 | 3.7E-03 |  5.4  5.3E-02  OK|
 | E-Diss.K             | 0.94 | 8.1E-04 | 8.6E-03 |  8.2  1.1E-02  OK|
 +----------------------+------+---------+---------+------------------+

 ======================================================================
 OUTER LOOP ITERATION =  484 (   32) CPU SECONDS = 3.542E+02 (3.080E+01)
 ----------------------------------------------------------------------
 |       Equation       | Rate | RMS Res | Max Res |  Linear Solution |
 +----------------------+------+---------+---------+------------------+
 | U-Mom                | 1.02 | 1.7E-04 | 1.6E-03 |       3.5E-02  OK|
 | V-Mom                | 1.01 | 1.9E-04 | 1.5E-03 |       2.8E-02  OK|
 | W-Mom                | 1.02 | 1.5E-04 | 1.9E-03 |       4.8E-02  OK|
 | P-Mass               | 1.00 | 2.9E-05 | 2.6E-04 |  8.5  4.3E-02  OK|
 +----------------------+------+---------+---------+------------------+
 | H-Energy             | 1.01 | 6.3E-04 | 6.4E-03 |  5.4  4.2E-02  OK|
 +----------------------+------+---------+---------+------------------+
 | K-TurbKE             | 0.94 | 4.1E-04 | 3.4E-03 |  5.4  5.3E-02  OK|
 | E-Diss.K             | 0.94 | 7.6E-04 | 8.2E-03 |  8.2  1.1E-02  OK|
 +----------------------+------+---------+---------+------------------+

 ======================================================================
 OUTER LOOP ITERATION =  485 (   33) CPU SECONDS = 3.551E+02 (3.168E+01)
 ----------------------------------------------------------------------
 |       Equation       | Rate | RMS Res | Max Res |  Linear Solution |
 +----------------------+------+---------+---------+------------------+
 | U-Mom                | 1.02 | 1.7E-04 | 1.7E-03 |       3.5E-02  OK|
 | V-Mom                | 1.00 | 1.9E-04 | 1.4E-03 |       2.8E-02  OK|
 | W-Mom                | 1.01 | 1.5E-04 | 2.0E-03 |       4.6E-02  OK|
 | P-Mass               | 1.00 | 2.9E-05 | 3.0E-04 |  8.5  3.9E-02  OK|
 +----------------------+------+---------+---------+------------------+
 | H-Energy             | 1.00 | 6.3E-04 | 6.4E-03 |  5.4  4.3E-02  OK|
 +----------------------+------+---------+---------+------------------+
 | K-TurbKE             | 0.94 | 3.9E-04 | 3.1E-03 |  5.4  5.4E-02  OK|
 | E-Diss.K             | 0.94 | 7.1E-04 | 7.9E-03 |  8.2  1.1E-02  OK|
 +----------------------+------+---------+---------+------------------+

 ======================================================================
 |                        Timescale Information                       |
 ----------------------------------------------------------------------
 |       Equation       |         Type          |      Timescale      |
 +----------------------+-----------------------+---------------------+
 | U-Mom                | Auto Timescale        |     1.64210E-01     |
 | V-Mom                | Auto Timescale        |     1.64210E-01     |
 | W-Mom                | Auto Timescale        |     1.64210E-01     |
 +----------------------+-----------------------+---------------------+
 | H-Energy             | Auto Timescale        |     1.64210E-01     |
 +----------------------+-----------------------+---------------------+
 | K-TurbKE             | Auto Timescale        |     1.64210E-01     |
 | E-Diss.K             | Auto Timescale        |     1.64210E-01     |
 +----------------------+-----------------------+---------------------+

 ======================================================================
 OUTER LOOP ITERATION =  486 (   34) CPU SECONDS = 3.560E+02 (3.254E+01)
 ----------------------------------------------------------------------
 |       Equation       | Rate | RMS Res | Max Res |  Linear Solution |
 +----------------------+------+---------+---------+------------------+
 | U-Mom                | 1.02 | 1.8E-04 | 1.9E-03 |       3.4E-02  OK|
 | V-Mom                | 1.00 | 1.9E-04 | 1.5E-03 |       2.8E-02  OK|
 | W-Mom                | 1.00 | 1.5E-04 | 2.0E-03 |       4.3E-02  OK|
 | P-Mass               | 1.00 | 3.0E-05 | 3.4E-04 |  8.5  3.6E-02  OK|
 +----------------------+------+---------+---------+------------------+
 | H-Energy             | 0.99 | 6.2E-04 | 6.3E-03 |  5.4  4.3E-02  OK|
 +----------------------+------+---------+---------+------------------+
 | K-TurbKE             | 0.94 | 3.7E-04 | 2.9E-03 |  5.4  5.4E-02  OK|
 | E-Diss.K             | 0.94 | 6.7E-04 | 7.4E-03 |  8.2  1.1E-02  OK|
 +----------------------+------+---------+---------+------------------+

 ======================================================================
 OUTER LOOP ITERATION =  487 (   35) CPU SECONDS = 3.568E+02 (3.337E+01)
 ----------------------------------------------------------------------
 |       Equation       | Rate | RMS Res | Max Res |  Linear Solution |
 +----------------------+------+---------+---------+------------------+
 | U-Mom                | 1.02 | 1.8E-04 | 2.0E-03 |       3.1E-02  OK|
 | V-Mom                | 1.00 | 1.9E-04 | 1.7E-03 |       2.9E-02  OK|
 | W-Mom                | 1.00 | 1.5E-04 | 2.1E-03 |       4.1E-02  OK|
 | P-Mass               | 1.01 | 3.0E-05 | 3.7E-04 |  8.5  3.4E-02  OK|
 +----------------------+------+---------+---------+------------------+
 | H-Energy             | 0.99 | 6.2E-04 | 6.8E-03 |  5.4  4.3E-02  OK|
 +----------------------+------+---------+---------+------------------+
 | K-TurbKE             | 0.95 | 3.5E-04 | 2.7E-03 |  5.4  5.3E-02  OK|
 | E-Diss.K             | 0.94 | 6.3E-04 | 6.8E-03 |  8.2  1.1E-02  OK|
 +----------------------+------+---------+---------+------------------+

 ======================================================================
 OUTER LOOP ITERATION =  488 (   36) CPU SECONDS = 3.577E+02 (3.427E+01)
 ----------------------------------------------------------------------
 |       Equation       | Rate | RMS Res | Max Res |  Linear Solution |
 +----------------------+------+---------+---------+------------------+
 | U-Mom                | 1.02 | 1.8E-04 | 2.1E-03 |       2.9E-02  OK|
 | V-Mom                | 1.00 | 1.9E-04 | 1.8E-03 |       3.0E-02  OK|
 | W-Mom                | 0.99 | 1.5E-04 | 2.2E-03 |       3.9E-02  OK|
 | P-Mass               | 1.01 | 3.0E-05 | 4.1E-04 |  8.5  3.2E-02  OK|
 +----------------------+------+---------+---------+------------------+
 | H-Energy             | 0.98 | 6.1E-04 | 7.3E-03 |  5.4  4.3E-02  OK|
 +----------------------+------+---------+---------+------------------+
 | K-TurbKE             | 0.95 | 3.3E-04 | 2.5E-03 |  5.4  5.4E-02  OK|
 | E-Diss.K             | 0.93 | 5.8E-04 | 6.3E-03 |  8.2  1.1E-02  OK|
 +----------------------+------+---------+---------+------------------+

 ======================================================================
 OUTER LOOP ITERATION =  489 (   37) CPU SECONDS = 3.586E+02 (3.513E+01)
 ----------------------------------------------------------------------
 |       Equation       | Rate | RMS Res | Max Res |  Linear Solution |
 +----------------------+------+---------+---------+------------------+
 | U-Mom                | 1.01 | 1.9E-04 | 2.1E-03 |       2.7E-02  OK|
 | V-Mom                | 0.99 | 1.9E-04 | 1.9E-03 |       3.1E-02  OK|
 | W-Mom                | 0.98 | 1.5E-04 | 2.2E-03 |       3.7E-02  OK|
 | P-Mass               | 1.01 | 3.1E-05 | 4.4E-04 |  8.5  3.0E-02  OK|
 +----------------------+------+---------+---------+------------------+
 | H-Energy             | 0.97 | 5.9E-04 | 6.6E-03 |  5.4  4.2E-02  OK|
 +----------------------+------+---------+---------+------------------+
 | K-TurbKE             | 0.95 | 3.2E-04 | 2.2E-03 |  5.4  5.3E-02  OK|
 | E-Diss.K             | 0.93 | 5.4E-04 | 6.0E-03 |  8.2  1.1E-02  OK|
 +----------------------+------+---------+---------+------------------+

 ======================================================================
 OUTER LOOP ITERATION =  490 (   38) CPU SECONDS = 3.594E+02 (3.597E+01)
 ----------------------------------------------------------------------
 |       Equation       | Rate | RMS Res | Max Res |  Linear Solution |
 +----------------------+------+---------+---------+------------------+
 | U-Mom                | 1.01 | 1.9E-04 | 2.2E-03 |       2.6E-02  OK|
 | V-Mom                | 0.99 | 1.8E-04 | 2.0E-03 |       3.1E-02  OK|
 | W-Mom                | 0.97 | 1.4E-04 | 2.1E-03 |       3.6E-02  OK|
 | P-Mass               | 1.01 | 3.1E-05 | 4.6E-04 |  8.5  2.8E-02  OK|
 +----------------------+------+---------+---------+------------------+
 | H-Energy             | 0.97 | 5.7E-04 | 6.8E-03 |  5.4  4.1E-02  OK|
 +----------------------+------+---------+---------+------------------+
 | K-TurbKE             | 0.96 | 3.0E-04 | 1.9E-03 |  5.4  5.3E-02  OK|
 | E-Diss.K             | 0.92 | 5.0E-04 | 5.5E-03 |  8.2  1.2E-02  OK|
 +----------------------+------+---------+---------+------------------+

 ======================================================================
 |                        Timescale Information                       |
 ----------------------------------------------------------------------
 |       Equation       |         Type          |      Timescale      |
 +----------------------+-----------------------+---------------------+
 | U-Mom                | Auto Timescale        |     1.63739E-01     |
 | V-Mom                | Auto Timescale        |     1.63739E-01     |
 | W-Mom                | Auto Timescale        |     1.63739E-01     |
 +----------------------+-----------------------+---------------------+
 | H-Energy             | Auto Timescale        |     1.63739E-01     |
 +----------------------+-----------------------+---------------------+
 | K-TurbKE             | Auto Timescale        |     1.63739E-01     |
 | E-Diss.K             | Auto Timescale        |     1.63739E-01     |
 +----------------------+-----------------------+---------------------+

 ======================================================================
 OUTER LOOP ITERATION =  491 (   39) CPU SECONDS = 3.602E+02 (3.681E+01)
 ----------------------------------------------------------------------
 |       Equation       | Rate | RMS Res | Max Res |  Linear Solution |
 +----------------------+------+---------+---------+------------------+
 | U-Mom                | 1.00 | 1.9E-04 | 2.2E-03 |       2.7E-02  OK|
 | V-Mom                | 0.99 | 1.8E-04 | 2.0E-03 |       3.0E-02  OK|
 | W-Mom                | 0.96 | 1.4E-04 | 2.1E-03 |       3.5E-02  OK|
 | P-Mass               | 1.01 | 3.1E-05 | 4.8E-04 |  8.5  2.7E-02  OK|
 +----------------------+------+---------+---------+------------------+
 | H-Energy             | 0.95 | 5.5E-04 | 6.6E-03 |  5.4  4.1E-02  OK|
 +----------------------+------+---------+---------+------------------+
 | K-TurbKE             | 0.96 | 2.9E-04 | 1.7E-03 |  5.4  5.4E-02  OK|
 | E-Diss.K             | 0.91 | 4.6E-04 | 4.8E-03 |  8.2  1.3E-02  OK|
 +----------------------+------+---------+---------+------------------+

 ======================================================================
 OUTER LOOP ITERATION =  492 (   40) CPU SECONDS = 3.611E+02 (3.765E+01)
 ----------------------------------------------------------------------
 |       Equation       | Rate | RMS Res | Max Res |  Linear Solution |
 +----------------------+------+---------+---------+------------------+
 | U-Mom                | 0.99 | 1.9E-04 | 2.3E-03 |       2.8E-02  OK|
 | V-Mom                | 0.98 | 1.8E-04 | 2.1E-03 |       2.9E-02  OK|
 | W-Mom                | 0.95 | 1.3E-04 | 2.1E-03 |       3.4E-02  OK|
 | P-Mass               | 1.00 | 3.1E-05 | 4.8E-04 |  8.5  2.6E-02  OK|
 +----------------------+------+---------+---------+------------------+
 | H-Energy             | 0.95 | 5.2E-04 | 6.5E-03 |  5.4  4.0E-02  OK|
 +----------------------+------+---------+---------+------------------+
 | K-TurbKE             | 0.96 | 2.8E-04 | 1.7E-03 |  5.4  5.4E-02  OK|
 | E-Diss.K             | 0.91 | 4.2E-04 | 4.2E-03 |  8.2  1.4E-02  OK|
 +----------------------+------+---------+---------+------------------+

 ======================================================================
 OUTER LOOP ITERATION =  493 (   41) CPU SECONDS = 3.619E+02 (3.848E+01)
 ----------------------------------------------------------------------
 |       Equation       | Rate | RMS Res | Max Res |  Linear Solution |
 +----------------------+------+---------+---------+------------------+
 | U-Mom                | 0.99 | 1.8E-04 | 2.3E-03 |       2.9E-02  OK|
 | V-Mom                | 0.98 | 1.8E-04 | 2.1E-03 |       2.9E-02  OK|
 | W-Mom                | 0.95 | 1.2E-04 | 2.3E-03 |       3.3E-02  OK|
 | P-Mass               | 0.99 | 3.1E-05 | 4.8E-04 |  8.5  2.5E-02  OK|
 +----------------------+------+---------+---------+------------------+
 | H-Energy             | 0.94 | 4.9E-04 | 6.7E-03 |  5.4  4.1E-02  OK|
 +----------------------+------+---------+---------+------------------+
 | K-TurbKE             | 0.96 | 2.7E-04 | 1.7E-03 |  5.4  5.4E-02  OK|
 | E-Diss.K             | 0.90 | 3.7E-04 | 3.6E-03 |  8.2  1.5E-02  OK|
 +----------------------+------+---------+---------+------------------+

 ======================================================================
 OUTER LOOP ITERATION =  494 (   42) CPU SECONDS = 3.627E+02 (3.930E+01)
 ----------------------------------------------------------------------
 |       Equation       | Rate | RMS Res | Max Res |  Linear Solution |
 +----------------------+------+---------+---------+------------------+
 | U-Mom                | 0.98 | 1.8E-04 | 2.3E-03 |       3.0E-02  OK|
 | V-Mom                | 0.98 | 1.7E-04 | 2.2E-03 |       2.9E-02  OK|
 | W-Mom                | 0.93 | 1.2E-04 | 2.3E-03 |       3.2E-02  OK|
 | P-Mass               | 0.98 | 3.0E-05 | 4.9E-04 |  8.5  2.5E-02  OK|
 +----------------------+------+---------+---------+------------------+
 | H-Energy             | 0.93 | 4.6E-04 | 6.3E-03 |  5.4  4.0E-02  OK|
 +----------------------+------+---------+---------+------------------+
 | K-TurbKE             | 0.96 | 2.6E-04 | 1.9E-03 |  5.4  5.5E-02  OK|
 | E-Diss.K             | 0.89 | 3.3E-04 | 3.2E-03 |  8.2  1.6E-02  OK|
 +----------------------+------+---------+---------+------------------+

 ======================================================================
 OUTER LOOP ITERATION =  495 (   43) CPU SECONDS = 3.635E+02 (4.011E+01)
 ----------------------------------------------------------------------
 |       Equation       | Rate | RMS Res | Max Res |  Linear Solution |
 +----------------------+------+---------+---------+------------------+
 | U-Mom                | 0.97 | 1.7E-04 | 2.3E-03 |       3.0E-02  OK|
 | V-Mom                | 0.97 | 1.7E-04 | 2.2E-03 |       3.0E-02  OK|
 | W-Mom                | 0.93 | 1.1E-04 | 2.2E-03 |       3.1E-02  OK|
 | P-Mass               | 0.97 | 2.9E-05 | 4.9E-04 |  8.5  2.5E-02  OK|
 +----------------------+------+---------+---------+------------------+
[...]
 +----------------------+------+---------+---------+------------------+
 | H-Energy             | 1.01 | 1.1E-04 | 1.4E-03 |  5.4  5.6E-02  OK|
 +----------------------+------+---------+---------+------------------+
 | K-TurbKE             | 0.98 | 7.9E-05 | 6.2E-04 |  5.4  4.7E-02  OK|
 | E-Diss.K             | 1.00 | 1.2E-04 | 1.4E-03 |  8.2  1.4E-02  OK|
 +----------------------+------+---------+---------+------------------+

 ======================================================================
 OUTER LOOP ITERATION =  549 (   97) CPU SECONDS = 4.080E+02 (8.457E+01)
 ----------------------------------------------------------------------
 |       Equation       | Rate | RMS Res | Max Res |  Linear Solution |
 +----------------------+------+---------+---------+------------------+
 | U-Mom                | 0.96 | 3.7E-05 | 4.5E-04 |       4.3E-02  OK|
 | V-Mom                | 0.99 | 4.1E-05 | 4.3E-04 |       4.0E-02  OK|
 | W-Mom                | 1.01 | 2.8E-05 | 3.9E-04 |       4.4E-02  OK|
 | P-Mass               | 1.00 | 6.7E-06 | 7.5E-05 |  8.5  9.9E-02  OK|
 +----------------------+------+---------+---------+------------------+
 | H-Energy             | 1.01 | 1.1E-04 | 1.5E-03 |  5.4  5.5E-02  OK|
 +----------------------+------+---------+---------+------------------+
 | K-TurbKE             | 0.98 | 7.8E-05 | 5.8E-04 |  5.4  4.6E-02  OK|
 | E-Diss.K             | 0.99 | 1.2E-04 | 1.4E-03 |  8.2  1.4E-02  OK|
 +----------------------+------+---------+---------+------------------+

 ======================================================================
 OUTER LOOP ITERATION =  550 (   98) CPU SECONDS = 4.089E+02 (8.545E+01)
 ----------------------------------------------------------------------
 |       Equation       | Rate | RMS Res | Max Res |  Linear Solution |
 +----------------------+------+---------+---------+------------------+
 | U-Mom                | 0.96 | 3.6E-05 | 4.2E-04 |       4.1E-02  OK|
 | V-Mom                | 0.99 | 4.1E-05 | 4.2E-04 |       4.1E-02  OK|
 | W-Mom                | 1.01 | 2.8E-05 | 4.0E-04 |       4.3E-02  OK|
 | P-Mass               | 1.00 | 6.8E-06 | 7.9E-05 |  8.5  9.8E-02  OK|
 +----------------------+------+---------+---------+------------------+
 | H-Energy             | 1.01 | 1.1E-04 | 1.5E-03 |  5.4  5.5E-02  OK|
 +----------------------+------+---------+---------+------------------+
 | K-TurbKE             | 0.98 | 7.6E-05 | 5.5E-04 |  5.4  4.5E-02  OK|
 | E-Diss.K             | 0.99 | 1.2E-04 | 1.3E-03 |  8.2  1.3E-02  OK|
 +----------------------+------+---------+---------+------------------+

 ======================================================================
 |                        Timescale Information                       |
 ----------------------------------------------------------------------
 |       Equation       |         Type          |      Timescale      |
 +----------------------+-----------------------+---------------------+
 | U-Mom                | Auto Timescale        |     1.59693E-01     |
 | V-Mom                | Auto Timescale        |     1.59693E-01     |
 | W-Mom                | Auto Timescale        |     1.59693E-01     |
 +----------------------+-----------------------+---------------------+
 | H-Energy             | Auto Timescale        |     1.59693E-01     |
 +----------------------+-----------------------+---------------------+
 | K-TurbKE             | Auto Timescale        |     1.59693E-01     |
 | E-Diss.K             | Auto Timescale        |     1.59693E-01     |
 +----------------------+-----------------------+---------------------+

 ======================================================================
 OUTER LOOP ITERATION =  551 (   99) CPU SECONDS = 4.097E+02 (8.631E+01)
 ----------------------------------------------------------------------
 |       Equation       | Rate | RMS Res | Max Res |  Linear Solution |
 +----------------------+------+---------+---------+------------------+
 | U-Mom                | 0.96 | 3.4E-05 | 3.9E-04 |       3.9E-02  OK|
 | V-Mom                | 1.00 | 4.1E-05 | 4.1E-04 |       4.2E-02  OK|
 | W-Mom                | 1.01 | 2.9E-05 | 4.1E-04 |       4.2E-02  OK|
 | P-Mass               | 1.00 | 6.8E-06 | 8.2E-05 |  8.5  9.6E-02  OK|
 +----------------------+------+---------+---------+------------------+
 | H-Energy             | 1.01 | 1.1E-04 | 1.6E-03 |  5.4  5.4E-02  OK|
 +----------------------+------+---------+---------+------------------+
 | K-TurbKE             | 0.98 | 7.5E-05 | 5.5E-04 |  5.4  4.4E-02  OK|
 | E-Diss.K             | 0.99 | 1.2E-04 | 1.3E-03 |  8.2  1.3E-02  OK|
 +----------------------+------+---------+---------+------------------+

 ======================================================================
 OUTER LOOP ITERATION =  552 (  100) CPU SECONDS = 4.106E+02 (8.715E+01)
 ----------------------------------------------------------------------
 |       Equation       | Rate | RMS Res | Max Res |  Linear Solution |
 +----------------------+------+---------+---------+------------------+
 | U-Mom                | 0.98 | 3.4E-05 | 3.6E-04 |       3.8E-02  OK|
 | V-Mom                | 0.99 | 4.1E-05 | 4.0E-04 |       4.2E-02  OK|
 | W-Mom                | 1.00 | 2.9E-05 | 4.1E-04 |       4.1E-02  OK|
 | P-Mass               | 1.00 | 6.8E-06 | 8.5E-05 |  8.5  9.3E-02  OK|
 +----------------------+------+---------+---------+------------------+
 | H-Energy             | 1.01 | 1.2E-04 | 1.5E-03 |  5.4  5.4E-02  OK|
 +----------------------+------+---------+---------+------------------+
 | K-TurbKE             | 0.98 | 7.4E-05 | 5.5E-04 |  5.4  4.3E-02  OK|
 | E-Diss.K             | 0.98 | 1.2E-04 | 1.2E-03 |  8.2  1.2E-02  OK|
 +----------------------+------+---------+---------+------------------+
                   
 CFD Solver finished: Thu Dec  6 14:37:42 2018
 CFD Solver wall clock seconds: 8.4461E+01

 ======================================================================
              Termination and Interrupt Condition Summary
 ======================================================================
    
 CFD Solver: Run duration reached
   (Maximum number of outer iterations)

 ======================================================================
              Boundary Flow and Total Source Term Summary
 ======================================================================

 +--------------------------------------------------------------------+
 |                               U-Mom                                |
 +--------------------------------------------------------------------+
 Boundary         : Default Domain Default                 -1.7872E+02
 Boundary         : in1                                     2.5697E-05
 Boundary         : in2                                    -4.6635E-05
 Boundary         : out                                     1.2320E+02
                                                           -----------
 Domain Imbalance :                                        -5.5521E+01

 +--------------------------------------------------------------------+
 |                               V-Mom                                |
 +--------------------------------------------------------------------+
 Boundary         : Default Domain Default                 -8.9647E+04
 Boundary         : in1                                     1.6803E+05
 Boundary         : in2                                    -7.8576E+04
 Boundary         : out                                     1.9360E+02
                                                           -----------
 Domain Imbalance :                                         3.3817E+00

 +--------------------------------------------------------------------+
 |                               W-Mom                                |
 +--------------------------------------------------------------------+
 Boundary         : Default Domain Default                 -1.2835E+04
 Boundary         : in1                                    -1.3863E-05
 Boundary         : in2                                    -1.2664E-05
 Boundary         : out                                     1.2877E+04
                                                           -----------
 Domain Imbalance :                                         4.1727E+01

 +--------------------------------------------------------------------+
 |                               P-Mass                               |
 +--------------------------------------------------------------------+
 Boundary         : in1                                     1.5000E+03
 Boundary         : in2                                     1.5000E+03
 Boundary         : out                                    -2.9997E+03
                                                           -----------
 Domain Imbalance :                                         2.8345E-01

 +--------------------------------------------------------------------+
 |                              H-Energy                              |
 +--------------------------------------------------------------------+
 Boundary         : in1                                     1.0569E+08
 Boundary         : in2                                    -8.2484E+07
 Boundary         : out                                    -2.2310E+07
                                                           -----------
 Domain Imbalance :                                         8.9802E+05


 +--------------------------------------------------------------------+
 |                     Normalised Imbalance Summary                   |
 +--------------------------------------------------------------------+
 |       Equation       |      Maximum Flow     |     Imbalance (%)   |
 +--------------------------------------------------------------------+
 | U-Mom                |       1.6803E+05      |       -0.0330       |
 | V-Mom                |       1.6803E+05      |        0.0020       |
 | W-Mom                |       1.6803E+05      |        0.0248       |
 | P-Mass               |       2.9997E+03      |        0.0094       |
 +----------------------+-----------------------+---------------------+
 | H-Energy             |       1.0569E+08      |        0.8497       |
 +----------------------+-----------------------+---------------------+

 ======================================================================
                     Wall Force and Moment Summary
 ======================================================================
                                                                          
 Notes:
 1. Pressure integrals exclude the reference pressure.  To include
    it, set the expert parameter 'include pref in forces = t'.


 +--------------------------------------------------------------------+
 |                      Pressure Force On Walls                       |
 +--------------------------------------------------------------------+
                                    X-Comp.      Y-Comp.      Z-Comp.

 Domain Group: Default Domain

 Default Domain Default           1.7363E+02   8.9863E+04   1.2769E+04
                                  -----------  -----------  -----------
 Domain Group Totals :            1.7363E+02   8.9863E+04   1.2769E+04


 +--------------------------------------------------------------------+
 |                       Viscous Force On Walls                       |
 +--------------------------------------------------------------------+
                                    X-Comp.      Y-Comp.      Z-Comp.

 Domain Group: Default Domain

 Default Domain Default           6.3763E+00  -2.1603E+02   6.8083E+01
                                  -----------  -----------  -----------
 Domain Group Totals :            6.3763E+00  -2.1603E+02   6.8083E+01


 +--------------------------------------------------------------------+
 |                      Pressure Moment On Walls                      |
 +--------------------------------------------------------------------+
                                    X-Comp.      Y-Comp.      Z-Comp.

 Domain Group: Default Domain

 Default Domain Default          -8.9407E+04   7.2933E+01  -2.7461E+05
                                  -----------  -----------  -----------
 Domain Group Totals :           -8.9407E+04   7.2933E+01  -2.7461E+05


 +--------------------------------------------------------------------+
 |                       Viscous Moment On Walls                      |
 +--------------------------------------------------------------------+
                                    X-Comp.      Y-Comp.      Z-Comp.

 Domain Group: Default Domain

 Default Domain Default           2.7378E+02  -4.9434E+01  -6.4914E+03
                                  -----------  -----------  -----------
 Domain Group Totals :            2.7378E+02  -4.9434E+01  -6.4914E+03


 +--------------------------------------------------------------------+
 |                   Locations of Maximum Residuals                   |
 +--------------------------------------------------------------------+
 |       Equation       |      Domain Name      |     Node Number     |
 +--------------------------------------------------------------------+
 | U-Mom                | Default Domain        |          15581      |
 | V-Mom                | Default Domain        |          14833      |
 | W-Mom                | Default Domain        |          14898      |
 | P-Mass               | Default Domain        |          14798      |
 +----------------------+-----------------------+---------------------+
 | H-Energy             | Default Domain        |          14467      |
 +----------------------+-----------------------+---------------------+
 | K-TurbKE             | Default Domain        |           5032      |
 | E-Diss.K             | Default Domain        |          13965      |
 +----------------------+-----------------------+---------------------+

 ======================================================================
 |                     False Transient Information                    |
 +--------------------------------------------------------------------+
 |       Equation       |         Type          | Elapsed Pseudo-Time |
 +--------------------------------------------------------------------+
 | U-Mom                | Auto Timescale        |     1.63408E+01     |
 | V-Mom                | Auto Timescale        |     1.63408E+01     |
 | W-Mom                | Auto Timescale        |     1.63408E+01     |
 +----------------------+-----------------------+---------------------+
 | H-Energy             | Auto Timescale        |     1.63408E+01     |
 +----------------------+-----------------------+---------------------+
 | K-TurbKE             | Auto Timescale        |     1.63408E+01     |
 | E-Diss.K             | Auto Timescale        |     1.63408E+01     |
 +----------------------+-----------------------+---------------------+

 +--------------------------------------------------------------------+
 |                     Average Scale Information                      |
 +--------------------------------------------------------------------+

 Domain Name : Default Domain
     Global Length                                         = 3.2734E+00
     Minimum Extent                                        = 4.0000E+00
     Maximum Extent                                        = 6.0000E+00
     Density                                               = 9.9700E+02
     Dynamic Viscosity                                     = 8.8990E-04
     Velocity                                              = 6.5161E+00
     Advection Time                                        = 5.0235E-01
     Reynolds Number                                       = 2.3896E+07
     Thermal Conductivity                                  = 6.0690E-01
     Specific Heat Capacity at Constant Pressure           = 4.1817E+03
     Prandtl Number                                        = 6.1316E+00
     Temperature Range                                     = 3.0199E+01

 +--------------------------------------------------------------------+
 |                     Variable Range Information                     |
 +--------------------------------------------------------------------+

 Domain Name : Default Domain
 +--------------------------------------------------------------------+
 |      Variable Name                         |    min    |    max    |
 +--------------------------------------------------------------------+
 | Density                                    |  9.97E+02 |  9.97E+02 |
 | Specific Heat Capacity at Constant Pressure|  4.18E+03 |  4.18E+03 |
 | Dynamic Viscosity                          |  8.90E-04 |  8.90E-04 |
 | Thermal Conductivity                       |  6.07E-01 |  6.07E-01 |
 | Static Entropy                             | -1.90E+02 |  2.32E+02 |
 | Velocity u                                 | -8.52E+00 |  8.49E+00 |
 | Velocity v                                 | -8.88E+00 |  8.60E+00 |
 | Velocity w                                 | -5.75E+00 |  2.81E+00 |
 | Pressure                                   | -1.35E+04 |  9.93E+04 |
 | Turbulence Kinetic Energy                  |  4.39E-05 |  4.94E+00 |
 | Turbulence Eddy Dissipation                |  7.27E-05 |  7.02E+01 |
 | Eddy Viscosity                             |  1.83E-03 |  3.65E+02 |
 | Temperature                                |  2.85E+02 |  3.15E+02 |
 | Static Enthalpy                            | -5.53E+04 |  7.10E+04 |
 +--------------------------------------------------------------------+

 +--------------------------------------------------------------------+
 |               CPU Requirements of Numerical Solution               |
 +--------------------------------------------------------------------+

 Subsystem Name                  Discretization       Linear Solution
                                (secs.   %total)     (secs.   %total) 
 ----------------------------------------------------------------------
 Momentum and Mass              3.02E+01  33.2 %     6.83E+00   7.5 %
 Heat Transfer                  1.01E+01  11.1 %     3.03E+00   3.3 %
 TurbKE and Diss.K              1.66E+01  18.2 %     7.19E+00   7.9 %
                                -------- -------     --------  ------
 Subsystem Summary              5.68E+01  62.6 %     1.71E+01  18.8 %

 File Reading                   3.40E-02    0.0 %
 Search Calculations            2.00E-03    0.0 %
 Variable Updates               1.01E+01   11.1 %
 File Writing                   2.76E-01    0.3 %
 Miscellaneous                  6.52E+00    7.2 %
                                --------
 Total                          9.08E+01

 +--------------------------------------------------------------------+
 |                   Job Information at End of Run                    |
 +--------------------------------------------------------------------+

 Host computer:  ENPC-LAB137 (PID:9024)

 Job finished:   Thu Dec  6 14:37:44 2018

 Total wall clock time: 9.080E+01 seconds
             or: (          0:         0:         1:    30.800 )
                 (       Days:     Hours:   Minutes:   Seconds )

End of solution stage.

 +--------------------------------------------------------------------+
 | The results from this run of the ANSYS CFX Solver have been        |
 | written to                                                         |
 | H:/dos/CFD/CW/CFD-Static-Mixer/StaticMixerDX_pending/dp8_CFX_Solu- |
 | tion/Fluid Flow CFX_009.res                                        |
 +--------------------------------------------------------------------+


 +--------------------------------------------------------------------+
 | For CFX runs launched from Workbench, the final locations of       |
 | directories and files generated may differ from those shown.       |
 +--------------------------------------------------------------------+


This run of the ANSYS CFX Solver has finished.
