 This run of the CFX Release 19.1 Solver started at 14:57:32 on 06 Dec
 2018 by user jc2182 on ENPC-LAB137 (intel_xeon64.sse2_winnt) using the
 command:
 
  "C:\Program Files\ANSYS Inc\v191\CFX\bin\perllib\cfx5solve.pl" -batch
    -ccl runInput.ccl -fullname "Fluid Flow CFX_009"
 
 Release 19.1
 
  Point Releases and Patches installed:
  ANSYS, Inc. Products Release 19.1
  SpaceClaim Release 19.1
  Autodyn Release 19.1
  LS-DYNA Release 19.1
  CFD-Post only Release 19.1
  CFX (includes CFD-Post) Release 19.1
  Chemkin Release 19.1
  EnSight Release 19.1
  FENSAP-ICE Release 19.1
  Fluent (includes CFD-Post) Release 19.1
  Forte Release 19.1
  Polyflow (includes CFD-Post) Release 19.1
  TurboGrid Release 19.1
  ICEM CFD Release 19.1
  Customization Files for User Programmable Features Release 19.1
  Mechanical Products Release 19.1
  Icepak (includes CFD-Post) Release 19.1
  Remote Solve Manager Standalone Services Release 19.1
  ACIS Geometry Interface Release 19.1
  Catia, Version 5 Geometry Interface Release 19.1
  NX Geometry Interface Release 19.1
  Parasolid Geometry Interface  Release 19.1
  ANSYS, Inc. License Manager Release 19.1
 
 Setting up CFX Solver run ...
 
 
 +--------------------------------------------------------------------+
 |                                                                    |
 |                    CFX Command Language for Run                    |
 |                                                                    |
 +--------------------------------------------------------------------+
 
 LIBRARY:
   CEL:
     EXPRESSIONS:
       inMassFlow = 1500 [kg s^-1]
     END
   END
   MATERIAL: Water
     Material Description = Water (liquid)
     Material Group = Water Data, Constant Property Liquids
     Option = Pure Substance
     Thermodynamic State = Liquid
     PROPERTIES:
       Option = General Material
       EQUATION OF STATE:
         Density = 997.0 [kg m^-3]
         Molar Mass = 18.02 [kg kmol^-1]
         Option = Value
       END
       SPECIFIC HEAT CAPACITY:
         Option = Value
         Specific Heat Capacity = 4181.7 [J kg^-1 K^-1]
         Specific Heat Type = Constant Pressure
       END
       REFERENCE STATE:
         Option = Specified Point
         Reference Pressure = 1 [atm]
         Reference Specific Enthalpy = 0.0 [J/kg]
         Reference Specific Entropy = 0.0 [J/kg/K]
         Reference Temperature = 25 [C]
       END
       DYNAMIC VISCOSITY:
         Dynamic Viscosity = 8.899E-4 [kg m^-1 s^-1]
         Option = Value
       END
       THERMAL CONDUCTIVITY:
         Option = Value
         Thermal Conductivity = 0.6069 [W m^-1 K^-1]
       END
       ABSORPTION COEFFICIENT:
         Absorption Coefficient = 1.0 [m^-1]
         Option = Value
       END
       SCATTERING COEFFICIENT:
         Option = Value
         Scattering Coefficient = 0.0 [m^-1]
       END
       REFRACTIVE INDEX:
         Option = Value
         Refractive Index = 1.0 [m m^-1]
       END
       THERMAL EXPANSIVITY:
         Option = Value
         Thermal Expansivity = 2.57E-04 [K^-1]
       END
     END
   END
 END
 FLOW: Flow Analysis 1
   SOLUTION UNITS:
     Angle Units = [rad]
     Length Units = [m]
     Mass Units = [kg]
     Solid Angle Units = [sr]
     Temperature Units = [K]
     Time Units = [s]
   END
   ANALYSIS TYPE:
     Option = Steady State
     EXTERNAL SOLVER COUPLING:
       Option = None
     END
   END
   DOMAIN: Default Domain
     Coord Frame = Coord 0
     Domain Type = Fluid
     Location = B17
     BOUNDARY: Default Domain Default
       Boundary Type = WALL
       Location = F12.17,F14.17,F16.17,F19.17,F20.17,F21.17
       BOUNDARY CONDITIONS:
         HEAT TRANSFER:
           Option = Adiabatic
         END
         MASS AND MOMENTUM:
           Option = No Slip Wall
         END
         WALL ROUGHNESS:
           Option = Smooth Wall
         END
       END
     END
     BOUNDARY: in1
       Boundary Type = INLET
       Location = in1
       BOUNDARY CONDITIONS:
         FLOW DIRECTION:
           Option = Normal to Boundary Condition
         END
         FLOW REGIME:
           Option = Subsonic
         END
         HEAT TRANSFER:
           Option = Static Temperature
           Static Temperature = 315 [K]
         END
         MASS AND MOMENTUM:
           Mass Flow Rate = inMassFlow
           Mass Flow Rate Area = As Specified
           Option = Mass Flow Rate
         END
         TURBULENCE:
           Option = Medium Intensity and Eddy Viscosity Ratio
         END
       END
     END
     BOUNDARY: in2
       Boundary Type = INLET
       Location = in2
       BOUNDARY CONDITIONS:
         FLOW DIRECTION:
           Option = Normal to Boundary Condition
         END
         FLOW REGIME:
           Option = Subsonic
         END
         HEAT TRANSFER:
           Option = Static Temperature
           Static Temperature = 285 [K]
         END
         MASS AND MOMENTUM:
           Mass Flow Rate = inMassFlow
           Mass Flow Rate Area = As Specified
           Option = Mass Flow Rate
         END
         TURBULENCE:
           Option = Medium Intensity and Eddy Viscosity Ratio
         END
       END
     END
     BOUNDARY: out
       Boundary Type = OUTLET
       Location = out
       BOUNDARY CONDITIONS:
         FLOW REGIME:
           Option = Subsonic
         END
         MASS AND MOMENTUM:
           Option = Static Pressure
           Relative Pressure = 0 [Pa]
         END
       END
     END
     DOMAIN MODELS:
       BUOYANCY MODEL:
         Option = Non Buoyant
       END
       DOMAIN MOTION:
         Option = Stationary
       END
       MESH DEFORMATION:
         Option = None
       END
       REFERENCE PRESSURE:
         Reference Pressure = 1 [atm]
       END
     END
     FLUID DEFINITION: Fluid 1
       Material = Water
       Option = Material Library
       MORPHOLOGY:
         Option = Continuous Fluid
       END
     END
     FLUID MODELS:
       COMBUSTION MODEL:
         Option = None
       END
       HEAT TRANSFER MODEL:
         Option = Thermal Energy
       END
       THERMAL RADIATION MODEL:
         Option = None
       END
       TURBULENCE MODEL:
         Option = k epsilon
       END
       TURBULENT WALL FUNCTIONS:
         Option = Scalable
       END
     END
   END
   OUTPUT CONTROL:
     RESULTS:
       File Compression Level = Default
       Option = Standard
     END
   END
   SOLVER CONTROL:
     Turbulence Numerics = High Resolution
     ADVECTION SCHEME:
       Option = High Resolution
     END
     CONVERGENCE CONTROL:
       Length Scale Option = Conservative
       Maximum Number of Iterations = 100
       Minimum Number of Iterations = 5
       Timescale Control = Auto Timescale
       Timescale Factor = 1.0
     END
     CONVERGENCE CRITERIA:
       Residual Target = 1.E-4
       Residual Type = RMS
     END
     DYNAMIC MODEL CONTROL:
       Global Dynamic Model Control = On
     END
   END
 END
 COMMAND FILE:
   Version = 19.1
   Results Version = 19.1
 END
 PARAMETERIZATION:
   INPUT FIELD: inMassFlow
     Expression Name = inMassFlow
     Method = Expression
   END
 END
 SIMULATION CONTROL:
   EXECUTION CONTROL:
     EXECUTABLE SELECTION:
       Double Precision = No
       Large Problem = No
     END
     INTERPOLATOR STEP CONTROL:
       Runtime Priority = Standard
       MEMORY CONTROL:
         Memory Allocation Factor = 1.0
       END
     END
     PARALLEL HOST LIBRARY:
       HOST DEFINITION: enpclab137
         Remote Host Name = ENPC-LAB137
         Host Architecture String = winnt-amd64
         Installation Root = C:\Program Files\ANSYS Inc\v%v\CFX
       END
     END
     PARTITIONER STEP CONTROL:
       Multidomain Option = Automatic
       Runtime Priority = Standard
       MEMORY CONTROL:
         Memory Allocation Factor = 1.0
       END
       PARTITION SMOOTHING:
         Maximum Partition Smoothing Sweeps = 100
         Option = Smooth
       END
       PARTITIONING TYPE:
         MeTiS Type = k-way
         Option = MeTiS
         Partition Size Rule = Automatic
       END
     END
     RUN DEFINITION:
       Run Mode = Full
       Solver Input File = Fluid Flow CFX.def
       Solver Results File = \
         H:/dos/CFD/CW/CFD-Static-Mixer/StaticMixerDX_pending/dp8_CFX_Solution\
         /Fluid Flow CFX_009.res
       INITIAL VALUES SPECIFICATION:
         INITIAL VALUES CONTROL:
           Use Mesh From = Solver Input File
           Continue History From = Workbench Initial Values
         END
         INITIAL VALUES: Workbench Initial Values
           Option = Results File
           File Name = Fluid Flow CFX_008.res
         END
       END
     END
     SOLVER STEP CONTROL:
       Runtime Priority = Standard
       MEMORY CONTROL:
         Memory Allocation Factor = 1.0
       END
       PARALLEL ENVIRONMENT:
         Number of Processes = 1
         Start Method = Serial
       END
     END
   END
 END
 
 
 +--------------------------------------------------------------------+
 |                                                                    |
 |                  Interpolation of Initial Values                   |
 |                                                                    |
 +--------------------------------------------------------------------+
 
 


 +--------------------------------------------------------------------+
 |                                                                    |
 |                    ANSYS(R) CFX(R) Interpolator                    |
 |                                                                    |
 | Release 19.1                                                       |
 | Build 19.1 2018-04-17T13:27:50.069000                              |
 | Tue Apr 17 15:02:11 GMTDT 2018                                     |
 |                                                                    |
 |                        Executable Attributes                       |
 |                                                                    |
 |           single-64bit-int32-archfort-optimised-std-lcomp          |
 |                                                                    |
 | (C) 1996-2018 ANSYS, Inc.                                          |
 |                                                                    |
 | All rights reserved. Unauthorized use, distribution or duplication |
 | is prohibited. This product is subject to U.S. laws governing      |
 | export and re-export. For full Legal Notice, see documentation.    |
 +--------------------------------------------------------------------+




 +--------------------------------------------------------------------+
 |                  Job Information at Start of Run                   |
 +--------------------------------------------------------------------+

 Run mode:       serial run

 Host computer:  ENPC-LAB137 (PID:1028)

 Job started:    Thu Dec  6 14:57:34 2018


 +--------------------------------------------------------------------+
 |        Memory Allocated for Run  (Actual usage may be less)        |
 +--------------------------------------------------------------------+

           | Real       | Integer    | Character | Logical  | Double
 ----------+------------+------------+-----------+----------+----------
 Mwords    |       1.67 |       1.97 |      0.20 |     0.01 |     0.09
 Mbytes    |       6.36 |       7.53 |      0.19 |     0.04 |     0.67
 ----------+------------+------------+-----------+----------+----------


 +--------------------------------------------------------------------+
 |                  Host Memory Information (Mbytes)                  |
 +--------------------------------------------------------------------+
 |          Host           |     System     |   Allocated    |   %    |
 +-------------------------+----------------+----------------+--------+
 | ENPC-LAB137             |     16240.97   |        14.79   |   0.09 |
 +-------------------------+----------------+----------------+--------+

 ======================================================================
               Interpolating Onto Domain "Default Domain"
 ======================================================================

 Total Number of Nodes in the Target Domain              =        29171
 Bounding Box Volume of the Target Mesh                  =  9.60000E+01


 Checking all source domains from the source file:
   Target mesh is different from domain "Default Domain".

 Searching for Candidate Source Domains:
   Domain "Default Domain"
     Number of Mapped Nodes                     =        24849 ( 85.2%)
     Bounding Box Overlap Volume                =  9.60000E+01 (100.0%)
   Setting Up Unmapped Nodes:
     Number of Unmapped Nodes                   =         4322 ( 14.8%)

 Start interpolation of variables: 
   Source Domain Name                                    Mapped Nodes
   Default Domain                                        24849 ( 85.2%)

 +--------------------------------------------------------------------+
 |                     Variable Range Information                     |
 +--------------------------------------------------------------------+
 +--------------------------------------------------------------------+
 |      Variable Name                         |    min    |    max    |
 +--------------------------------------------------------------------+
 | Thermal Conductivity                       |  6.07E-01 |  6.07E-01 |
 | Courant Number                             |  1.03E+00 |  4.68E+01 |
 | Density                                    |  9.97E+02 |  9.97E+02 |
 | Static Enthalpy                            | -5.50E+04 |  7.05E+04 |
 | Static Entropy                             | -1.89E+02 |  2.30E+02 |
 | Pressure                                   | -1.01E+04 |  8.01E+04 |
 | Specific Heat Capacity at Constant Pressure|  4.18E+03 |  4.18E+03 |
 | Specific Heat Capacity at Constant Volume  |  4.18E+03 |  4.18E+03 |
 | Turbulence Eddy Dissipation                |  3.16E-04 |  2.79E+02 |
 | Turbulence Eddy Frequency                  |  6.85E+00 |  2.84E+03 |
 | Temperature                                |  2.85E+02 |  3.15E+02 |
 | Turbulence Kinetic Energy                  |  1.06E-04 |  4.74E+00 |
 | Velocity                                   |  2.77E-01 |  7.76E+00 |
 | Dynamic Viscosity                          |  8.90E-04 |  8.90E-04 |
 | Eddy Viscosity                             |  1.38E-03 |  3.40E+02 |
 +--------------------------------------------------------------------+

 +--------------------------------------------------------------------+
 |                 CPU Requirements of Interpolation                  |
 +--------------------------------------------------------------------+

 Interpolation Step              Time    Percentage
                                (secs.   %total)
 ----------------------------------------------------------------------
 Tree Setup                     3.72E-01   10.4 %
 Interpolation                  1.22E+00   34.2 %
 Unmatched Nodes                8.70E-02    2.4 %
 Miscellaneous                  1.90E+00   53.0 %
                                --------
 Total                          3.58E+00

 +--------------------------------------------------------------------+
 |                   Job Information at End of Run                    |
 +--------------------------------------------------------------------+

 Host computer:  ENPC-LAB137 (PID:1028)

 Job finished:   Thu Dec  6 14:57:37 2018

 Total wall clock time: 3.588E+00 seconds
             or: (          0:         0:         0:     3.588 )
                 (       Days:     Hours:   Minutes:   Seconds )

 
 +--------------------------------------------------------------------+
 |                                                                    |
 |                               Solver                               |
 |                                                                    |
 +--------------------------------------------------------------------+
 



 +--------------------------------------------------------------------+
 |                                                                    |
 |                       ANSYS(R) CFX(R) Solver                       |
 |                                                                    |
 | Release 19.1                                                       |
 | Build 19.1 2018-04-17T13:27:50.069000                              |
 | Tue Apr 17 15:02:11 GMTDT 2018                                     |
 |                                                                    |
 |                        Executable Attributes                       |
 |                                                                    |
 |           single-64bit-int32-archfort-optimised-std-lcomp          |
 |                                                                    |
 | (C) 1996-2018 ANSYS, Inc.                                          |
 |                                                                    |
 | All rights reserved. Unauthorized use, distribution or duplication |
 | is prohibited. This product is subject to U.S. laws governing      |
 | export and re-export. For full Legal Notice, see documentation.    |
 +--------------------------------------------------------------------+




 +--------------------------------------------------------------------+
 |                  Job Information at Start of Run                   |
 +--------------------------------------------------------------------+

 Run mode:       serial run

 Host computer:  ENPC-LAB137 (PID:6224)

 Job started:    Thu Dec  6 14:57:40 2018

 +--------------------------------------------------------------------+
 |                        License Information                         |
 +--------------------------------------------------------------------+
 
 License Cap:    ANSYS CFX Solver (Max 128K Nodes)
 License ID:     VIGO_campus_bath_ac_uk-SYSTEM-1456-895383


 +--------------------------------------------------------------------+
 |        Memory Allocated for Run  (Actual usage may be less)        |
 +--------------------------------------------------------------------+

           | Real       | Integer    | Character | Logical  | Double
 ----------+------------+------------+-----------+----------+----------
 Mwords    |      17.75 |       5.01 |      7.26 |     0.12 |     0.91
 Mbytes    |      67.72 |      19.12 |      6.93 |     0.46 |     6.93
 ----------+------------+------------+-----------+----------+----------


 +--------------------------------------------------------------------+
 |                  Host Memory Information (Mbytes)                  |
 +--------------------------------------------------------------------+
 |          Host           |     System     |   Allocated    |   %    |
 +-------------------------+----------------+----------------+--------+
 | ENPC-LAB137             |     16240.97   |       101.15   |   0.62 |
 +-------------------------+----------------+----------------+--------+


 +--------------------------------------------------------------------+
 |                     ****** Notice ******                           |
 | The Wall Heat Transfer Coefficient written to the results file for |
 | any turbulent phase with heat transfer is based on the turbulent   |
 | wall function coefficient. It is consistent with the Wall Heat Flux|
 | the wall temperature, and the Wall Adjacent Temperature            |
 | (near-wall temperature).  If you would like it to be based on a    |
 | user-specified bulk temperature instead, please set the expert     |
 | parameter "tbulk for htc = <value>".                               |
 +--------------------------------------------------------------------+

 +--------------------------------------------------------------------+
 |                      Topology Simplification                       |
 +--------------------------------------------------------------------+

 +--------------------------------------------------------------------+
 |                       ****** Warning ******                        |
 |                                                                    |
 | Topology simplification is activated with the following            |
 | restrictions:                                                      |
 |                                                                    |
 | - Mesh regions referenced only within User Fortran and NOT         |
 |   in the command file will cause the solver to stop.               |
 | - The solver will stop during any "Edit Run in Progress" step      |
 |   if new 2D regions are referenced.                                |
 +--------------------------------------------------------------------+

 +--------------------------------------------------------------------+
 |                          Mesh Statistics                           |
 +--------------------------------------------------------------------+
 | Domain Name          | Orthog. Angle | Exp. Factor  | Aspect Ratio |
 +----------------------+---------------+--------------+--------------+
 |                      | Minimum [deg] |   Maximum    |    Maximum   |
 +----------------------+---------------+--------------+--------------+
 | Default Domain       |       30.8 ok |         9 ok |        28 OK |
 +----------------------+---------------+--------------+--------------+
 |                      |  %!  %ok  %OK | %!  %ok  %OK | %!  %ok  %OK |
 +----------------------+---------------+--------------+--------------+
 | Default Domain       |   0    1   99 |  0   <1  100 |  0    0  100 |
 +----------------------+---------------+--------------+--------------+

 Domain Name : Default Domain

     Total Number of Nodes                                =       29171

     Total Number of Elements                             =      104953
         Total Number of Tetrahedrons                     =       76563
         Total Number of Prisms                           =       28390

     Total Number of Faces                                =        7694

 +--------------------------------------------------------------------+
 |      Initial Conditions Supplied by Fields in the Input Files      |
 +--------------------------------------------------------------------+

 Domain Name : Default Domain
     Courant Number
     Eddy Viscosity
     Pressure
     Specific Heat Capacity at Constant Pressure
     Static Enthalpy
     Static Entropy
     Temperature
     Turbulence Eddy Dissipation
     Turbulence Eddy Frequency
     Turbulence Kinetic Energy
     Velocity

 +--------------------------------------------------------------------+
 |                     Average Scale Information                      |
 +--------------------------------------------------------------------+

 Domain Name : Default Domain
     Global Length                                         = 3.2734E+00
     Minimum Extent                                        = 4.0000E+00
     Maximum Extent                                        = 6.0000E+00
     Density                                               = 9.9700E+02
     Dynamic Viscosity                                     = 8.8990E-04
     Velocity                                              = 5.7072E+00
     Advection Time                                        = 5.7355E-01
     Reynolds Number                                       = 2.0930E+07
     Thermal Conductivity                                  = 6.0690E-01
     Specific Heat Capacity at Constant Pressure           = 4.1817E+03
     Prandtl Number                                        = 6.1316E+00
     Temperature Range                                     = 3.0013E+01

 +--------------------------------------------------------------------+
 |                Checking for Isolated Fluid Regions                 |
 +--------------------------------------------------------------------+
 
 No isolated fluid regions were found.

 +--------------------------------------------------------------------+
 |              The Equations Solved in This Calculation              |
 +--------------------------------------------------------------------+

 Subsystem : Momentum and Mass

   U-Mom
   V-Mom
   W-Mom
   P-Mass

 Subsystem : Heat Transfer

   H-Energy

 Subsystem : TurbKE and Diss.K

   K-TurbKE
   E-Diss.K
                   
 CFD Solver started: Thu Dec  6 14:57:44 2018


 +--------------------------------------------------------------------+
 |                       Convergence History                          |
 +--------------------------------------------------------------------+

 ======================================================================
 |                        Timescale Information                       |
 ----------------------------------------------------------------------
 |       Equation       |         Type          |      Timescale      |
 +----------------------+-----------------------+---------------------+
 | U-Mom                | Auto Timescale        |     1.79777E-01     |
 | V-Mom                | Auto Timescale        |     1.79777E-01     |
 | W-Mom                | Auto Timescale        |     1.79777E-01     |
 +----------------------+-----------------------+---------------------+
 | H-Energy             | Auto Timescale        |     1.79777E-01     |
 +----------------------+-----------------------+---------------------+
 | K-TurbKE             | Auto Timescale        |     1.79777E-01     |
 | E-Diss.K             | Auto Timescale        |     1.79777E-01     |
 +----------------------+-----------------------+---------------------+

 ======================================================================
 OUTER LOOP ITERATION =  362 (    1) CPU SECONDS = 2.531E+02 (3.870E+00)
 ----------------------------------------------------------------------
 |       Equation       | Rate | RMS Res | Max Res |  Linear Solution |
 +----------------------+------+---------+---------+------------------+
 | U-Mom                | 0.00 | 8.7E-03 | 2.5E-01 |       6.5E-02  OK|
 | V-Mom                | 0.00 | 7.9E-03 | 2.3E-01 |       7.0E-02  OK|
 | W-Mom                | 0.00 | 5.8E-03 | 2.6E-01 |       6.8E-02  OK|
 | P-Mass               | 0.00 | 2.9E-03 | 8.4E-02 |  5.2  6.6E-02  OK|
 +----------------------+------+---------+---------+------------------+
 | H-Energy             | 0.00 | 1.4E-02 | 3.8E-01 |  5.4  2.6E-02  OK|
 +----------------------+------+---------+---------+------------------+
 | K-TurbKE             | 0.00 | 6.1E-03 | 1.3E-01 |  5.4  4.6E-02  OK|
 | E-Diss.K             | 0.00 | 5.3E-02 | 9.4E-01 |  7.1  7.8E-03  OK|
 +----------------------+------+---------+---------+------------------+

 ======================================================================
 OUTER LOOP ITERATION =  363 (    2) CPU SECONDS = 2.543E+02 (5.060E+00)
 ----------------------------------------------------------------------
 |       Equation       | Rate | RMS Res | Max Res |  Linear Solution |
 +----------------------+------+---------+---------+------------------+
 | U-Mom                | 0.42 | 3.6E-03 | 1.2E-01 |       5.2E-02  OK|
 | V-Mom                | 0.68 | 5.4E-03 | 4.8E-02 |       6.2E-02  OK|
 | W-Mom                | 0.38 | 2.2E-03 | 1.0E-01 |       7.7E-02  OK|
 | P-Mass               | 0.27 | 7.7E-04 | 1.8E-02 |  9.4  2.8E-02  OK|
 +----------------------+------+---------+---------+------------------+
 | H-Energy             | 0.24 | 3.4E-03 | 1.3E-01 |  5.4  5.1E-02  OK|
 +----------------------+------+---------+---------+------------------+
 | K-TurbKE             | 3.28 | 2.0E-02 | 1.9E-01 |  5.4  2.6E-02  OK|
 | E-Diss.K             | 1.65 | 8.7E-02 | 1.6E+00 |  7.2  3.2E-03  OK|
 +----------------------+------+---------+---------+------------------+

 ======================================================================
 OUTER LOOP ITERATION =  364 (    3) CPU SECONDS = 2.554E+02 (6.144E+00)
 ----------------------------------------------------------------------
 |       Equation       | Rate | RMS Res | Max Res |  Linear Solution |
 +----------------------+------+---------+---------+------------------+
 | U-Mom                | 0.65 | 2.4E-03 | 1.1E-01 |       4.9E-02  OK|
 | V-Mom                | 1.17 | 6.3E-03 | 3.8E-02 |       5.5E-02  OK|
 | W-Mom                | 0.67 | 1.5E-03 | 6.5E-02 |       9.1E-02  OK|
 | P-Mass               | 0.52 | 4.0E-04 | 1.2E-02 |  9.4  3.6E-02  OK|
 +----------------------+------+---------+---------+------------------+
 | H-Energy             | 0.74 | 2.5E-03 | 8.4E-02 |  5.4  5.6E-02  OK|
 +----------------------+------+---------+---------+------------------+
 | K-TurbKE             | 0.41 | 8.3E-03 | 9.2E-02 |  5.4  3.8E-02  OK|
 | E-Diss.K             | 0.28 | 2.4E-02 | 3.5E-01 |  7.2  1.2E-02  OK|
 +----------------------+------+---------+---------+------------------+

 ======================================================================
 OUTER LOOP ITERATION =  365 (    4) CPU SECONDS = 2.565E+02 (7.242E+00)
 ----------------------------------------------------------------------
 |       Equation       | Rate | RMS Res | Max Res |  Linear Solution |
 +----------------------+------+---------+---------+------------------+
 | U-Mom                | 0.73 | 1.7E-03 | 1.0E-01 |       4.5E-02  OK|
 | V-Mom                | 0.62 | 3.9E-03 | 2.3E-02 |       5.2E-02  OK|
 | W-Mom                | 0.62 | 9.4E-04 | 5.4E-02 |       9.0E-02  OK|
 | P-Mass               | 0.61 | 2.4E-04 | 7.4E-03 |  9.4  4.3E-02  OK|
 +----------------------+------+---------+---------+------------------+
 | H-Energy             | 0.84 | 2.1E-03 | 6.0E-02 |  5.4  5.9E-02  OK|
 +----------------------+------+---------+---------+------------------+
 | K-TurbKE             | 0.80 | 6.6E-03 | 6.2E-02 |  5.4  4.2E-02  OK|
 | E-Diss.K             | 0.24 | 5.7E-03 | 2.0E-01 |  7.2  1.0E-02  OK|
 +----------------------+------+---------+---------+------------------+

 ======================================================================
 |                        Timescale Information                       |
 ----------------------------------------------------------------------
 |       Equation       |         Type          |      Timescale      |
 +----------------------+-----------------------+---------------------+
 | U-Mom                | Auto Timescale        |     1.96429E-01     |
 | V-Mom                | Auto Timescale        |     1.96429E-01     |
 | W-Mom                | Auto Timescale        |     1.96429E-01     |
 +----------------------+-----------------------+---------------------+
 | H-Energy             | Auto Timescale        |     1.96429E-01     |
 +----------------------+-----------------------+---------------------+
 | K-TurbKE             | Auto Timescale        |     1.96429E-01     |
 | E-Diss.K             | Auto Timescale        |     1.96429E-01     |
 +----------------------+-----------------------+---------------------+

 ======================================================================
 OUTER LOOP ITERATION =  366 (    5) CPU SECONDS = 2.577E+02 (8.402E+00)
 ----------------------------------------------------------------------
 |       Equation       | Rate | RMS Res | Max Res |  Linear Solution |
 +----------------------+------+---------+---------+------------------+
 | U-Mom                | 0.87 | 1.5E-03 | 7.6E-02 |       3.8E-02  OK|
 | V-Mom                | 0.43 | 1.7E-03 | 1.6E-02 |       5.4E-02  OK|
 | W-Mom                | 0.78 | 7.3E-04 | 3.6E-02 |       1.0E-01  ok|
 | P-Mass               | 0.66 | 1.6E-04 | 4.5E-03 |  9.4  3.6E-02  OK|
 +----------------------+------+---------+---------+------------------+
 | H-Energy             | 0.93 | 2.0E-03 | 4.4E-02 |  5.4  6.4E-02  OK|
 +----------------------+------+---------+---------+------------------+
 | K-TurbKE             | 0.29 | 1.9E-03 | 2.1E-02 |  5.4  4.3E-02  OK|
 | E-Diss.K             | 0.75 | 4.3E-03 | 9.1E-02 |  7.2  1.5E-02  OK|
 +----------------------+------+---------+---------+------------------+

 ======================================================================
 OUTER LOOP ITERATION =  367 (    6) CPU SECONDS = 2.588E+02 (9.533E+00)
 ----------------------------------------------------------------------
 |       Equation       | Rate | RMS Res | Max Res |  Linear Solution |
 +----------------------+------+---------+---------+------------------+
 | U-Mom                | 0.82 | 1.2E-03 | 5.0E-02 |       3.6E-02  OK|
 | V-Mom                | 0.70 | 1.2E-03 | 1.2E-02 |       5.1E-02  OK|
 | W-Mom                | 0.81 | 5.9E-04 | 2.1E-02 |       7.5E-02  OK|
 | P-Mass               | 0.64 | 1.0E-04 | 3.3E-03 |  9.4  2.9E-02  OK|
 +----------------------+------+---------+---------+------------------+
 | H-Energy             | 0.88 | 1.8E-03 | 4.5E-02 |  5.4  5.9E-02  OK|
 +----------------------+------+---------+---------+------------------+
 | K-TurbKE             | 0.91 | 1.7E-03 | 1.6E-02 |  5.4  3.7E-02  OK|
 | E-Diss.K             | 1.07 | 4.6E-03 | 4.9E-02 |  7.2  9.3E-03  OK|
 +----------------------+------+---------+---------+------------------+

 ======================================================================
 OUTER LOOP ITERATION =  368 (    7) CPU SECONDS = 2.599E+02 (1.062E+01)
 ----------------------------------------------------------------------
 |       Equation       | Rate | RMS Res | Max Res |  Linear Solution |
 +----------------------+------+---------+---------+------------------+
 | U-Mom                | 0.74 | 9.2E-04 | 2.7E-02 |       4.9E-02  OK|
 | V-Mom                | 1.05 | 1.2E-03 | 9.2E-03 |       6.3E-02  OK|
 | W-Mom                | 0.77 | 4.6E-04 | 1.1E-02 |       5.6E-02  OK|
 | P-Mass               | 0.69 | 7.2E-05 | 2.2E-03 |  9.4  3.4E-02  OK|
 +----------------------+------+---------+---------+------------------+
 | H-Energy             | 0.84 | 1.5E-03 | 3.4E-02 |  5.4  5.3E-02  OK|
 +----------------------+------+---------+---------+------------------+
 | K-TurbKE             | 0.56 | 9.8E-04 | 1.2E-02 |  5.4  4.8E-02  OK|
 | E-Diss.K             | 0.46 | 2.1E-03 | 6.6E-02 |  7.2  7.8E-03  OK|
 +----------------------+------+---------+---------+------------------+

 ======================================================================
 OUTER LOOP ITERATION =  369 (    8) CPU SECONDS = 2.610E+02 (1.172E+01)
 ----------------------------------------------------------------------
 |       Equation       | Rate | RMS Res | Max Res |  Linear Solution |
 +----------------------+------+---------+---------+------------------+
 | U-Mom                | 0.74 | 6.8E-04 | 1.8E-02 |       5.8E-02  OK|
 | V-Mom                | 0.79 | 9.7E-04 | 7.2E-03 |       7.2E-02  OK|
 | W-Mom                | 0.77 | 3.5E-04 | 6.1E-03 |       5.7E-02  OK|
 | P-Mass               | 0.80 | 5.7E-05 | 1.4E-03 |  9.4  4.1E-02  OK|
 +----------------------+------+---------+---------+------------------+
 | H-Energy             | 0.83 | 1.2E-03 | 2.1E-02 |  5.4  4.9E-02  OK|
 +----------------------+------+---------+---------+------------------+
 | K-TurbKE             | 0.79 | 7.7E-04 | 1.1E-02 |  5.4  5.5E-02  OK|
 | E-Diss.K             | 0.53 | 1.1E-03 | 3.4E-02 |  7.2  1.2E-02  OK|
 +----------------------+------+---------+---------+------------------+

 ======================================================================
 OUTER LOOP ITERATION =  370 (    9) CPU SECONDS = 2.621E+02 (1.280E+01)
 ----------------------------------------------------------------------
 |       Equation       | Rate | RMS Res | Max Res |  Linear Solution |
 +----------------------+------+---------+---------+------------------+
 | U-Mom                | 0.79 | 5.4E-04 | 9.8E-03 |       6.7E-02  OK|
 | V-Mom                | 0.65 | 6.3E-04 | 6.0E-03 |       7.9E-02  OK|
 | W-Mom                | 0.84 | 3.0E-04 | 6.4E-03 |       6.6E-02  OK|
 | P-Mass               | 0.88 | 5.0E-05 | 8.0E-04 |  9.4  4.5E-02  OK|
 +----------------------+------+---------+---------+------------------+
 | H-Energy             | 0.84 | 1.0E-03 | 1.7E-02 |  5.4  4.6E-02  OK|
 +----------------------+------+---------+---------+------------------+
 | K-TurbKE             | 0.82 | 6.3E-04 | 9.5E-03 |  5.4  5.9E-02  OK|
 | E-Diss.K             | 0.56 | 6.2E-04 | 2.3E-02 |  7.2  1.7E-02  OK|
 +----------------------+------+---------+---------+------------------+

 ======================================================================
 |                        Timescale Information                       |
 ----------------------------------------------------------------------
 |       Equation       |         Type          |      Timescale      |
 +----------------------+-----------------------+---------------------+
 | U-Mom                | Auto Timescale        |     1.98340E-01     |
 | V-Mom                | Auto Timescale        |     1.98340E-01     |
 | W-Mom                | Auto Timescale        |     1.98340E-01     |
 +----------------------+-----------------------+---------------------+
 | H-Energy             | Auto Timescale        |     1.98340E-01     |
 +----------------------+-----------------------+---------------------+
 | K-TurbKE             | Auto Timescale        |     1.98340E-01     |
 | E-Diss.K             | Auto Timescale        |     1.98340E-01     |
 +----------------------+-----------------------+---------------------+

 ======================================================================
 OUTER LOOP ITERATION =  371 (   10) CPU SECONDS = 2.632E+02 (1.389E+01)
 ----------------------------------------------------------------------
 |       Equation       | Rate | RMS Res | Max Res |  Linear Solution |
 +----------------------+------+---------+---------+------------------+
 | U-Mom                | 0.82 | 4.4E-04 | 7.5E-03 |       7.5E-02  OK|
 | V-Mom                | 0.67 | 4.2E-04 | 5.6E-03 |       8.5E-02  OK|
 | W-Mom                | 0.91 | 2.7E-04 | 6.8E-03 |       8.0E-02  OK|
 | P-Mass               | 0.90 | 4.5E-05 | 4.5E-04 |  9.4  5.1E-02  OK|
 +----------------------+------+---------+---------+------------------+
 | H-Energy             | 0.84 | 8.5E-04 | 1.3E-02 |  5.4  4.7E-02  OK|
 +----------------------+------+---------+---------+------------------+
 | K-TurbKE             | 0.92 | 5.8E-04 | 9.2E-03 |  5.4  5.8E-02  OK|
 | E-Diss.K             | 1.57 | 9.7E-04 | 3.4E-02 |  7.2  1.3E-02  OK|
 +----------------------+------+---------+---------+------------------+

 ======================================================================
 OUTER LOOP ITERATION =  372 (   11) CPU SECONDS = 2.643E+02 (1.502E+01)
 ----------------------------------------------------------------------
 |       Equation       | Rate | RMS Res | Max Res |  Linear Solution |
 +----------------------+------+---------+---------+------------------+
 | U-Mom                | 0.79 | 3.5E-04 | 5.2E-03 |       8.0E-02  OK|
 | V-Mom                | 0.88 | 3.7E-04 | 5.3E-03 |       8.7E-02  OK|
 | W-Mom                | 0.92 | 2.5E-04 | 7.2E-03 |       8.8E-02  OK|
 | P-Mass               | 0.91 | 4.1E-05 | 4.5E-04 |  9.4  6.5E-02  OK|
 +----------------------+------+---------+---------+------------------+
 | H-Energy             | 0.83 | 7.1E-04 | 1.1E-02 |  5.4  4.7E-02  OK|
 +----------------------+------+---------+---------+------------------+
 | K-TurbKE             | 0.94 | 5.4E-04 | 7.2E-03 |  5.4  5.7E-02  OK|
 | E-Diss.K             | 1.04 | 1.0E-03 | 3.2E-02 |  7.2  1.2E-02  OK|
 +----------------------+------+---------+---------+------------------+

 ======================================================================
 OUTER LOOP ITERATION =  373 (   12) CPU SECONDS = 2.654E+02 (1.618E+01)
 ----------------------------------------------------------------------
 |       Equation       | Rate | RMS Res | Max Res |  Linear Solution |
 +----------------------+------+---------+---------+------------------+
 | U-Mom                | 0.78 | 2.7E-04 | 4.4E-03 |       8.3E-02  OK|
 | V-Mom                | 0.90 | 3.3E-04 | 5.0E-03 |       8.7E-02  OK|
 | W-Mom                | 0.89 | 2.2E-04 | 5.5E-03 |       9.0E-02  OK|
 | P-Mass               | 0.91 | 3.8E-05 | 4.1E-04 |  9.4  8.0E-02  OK|
 +----------------------+------+---------+---------+------------------+
 | H-Energy             | 0.84 | 6.0E-04 | 9.4E-03 |  5.4  4.9E-02  OK|
 +----------------------+------+---------+---------+------------------+
 | K-TurbKE             | 0.94 | 5.1E-04 | 5.6E-03 |  5.4  5.5E-02  OK|
 | E-Diss.K             | 0.87 | 8.7E-04 | 2.7E-02 |  7.2  1.4E-02  OK|
 +----------------------+------+---------+---------+------------------+

 ======================================================================
 OUTER LOOP ITERATION =  374 (   13) CPU SECONDS = 2.666E+02 (1.736E+01)
 ----------------------------------------------------------------------
 |       Equation       | Rate | RMS Res | Max Res |  Linear Solution |
 +----------------------+------+---------+---------+------------------+
 | U-Mom                | 0.79 | 2.2E-04 | 4.3E-03 |       8.5E-02  OK|
 | V-Mom                | 0.83 | 2.8E-04 | 4.5E-03 |       8.7E-02  OK|
 | W-Mom                | 0.87 | 1.9E-04 | 5.3E-03 |       9.2E-02  OK|
 | P-Mass               | 0.91 | 3.4E-05 | 3.6E-04 |  9.4  9.0E-02  OK|
 +----------------------+------+---------+---------+------------------+
 | H-Energy             | 0.85 | 5.0E-04 | 7.8E-03 |  5.4  5.1E-02  OK|
 +----------------------+------+---------+---------+------------------+
 | K-TurbKE             | 0.94 | 4.8E-04 | 4.8E-03 |  5.4  5.4E-02  OK|
 | E-Diss.K             | 0.93 | 8.1E-04 | 2.4E-02 |  7.2  1.4E-02  OK|
 +----------------------+------+---------+---------+------------------+

 ======================================================================
 OUTER LOOP ITERATION =  375 (   14) CPU SECONDS = 2.678E+02 (1.851E+01)
 ----------------------------------------------------------------------
 |       Equation       | Rate | RMS Res | Max Res |  Linear Solution |
 +----------------------+------+---------+---------+------------------+
 | U-Mom                | 0.83 | 1.8E-04 | 4.5E-03 |       8.5E-02  OK|
 | V-Mom                | 0.82 | 2.3E-04 | 4.0E-03 |       8.6E-02  OK|
 | W-Mom                | 0.87 | 1.7E-04 | 4.7E-03 |       9.6E-02  OK|
 | P-Mass               | 0.91 | 3.1E-05 | 3.0E-04 |  9.4  9.4E-02  OK|
 +----------------------+------+---------+---------+------------------+
 | H-Energy             | 0.85 | 4.3E-04 | 6.0E-03 |  5.4  5.4E-02  OK|
 +----------------------+------+---------+---------+------------------+
 | K-TurbKE             | 0.95 | 4.5E-04 | 4.0E-03 |  5.4  5.4E-02  OK|
 | E-Diss.K             | 0.93 | 7.6E-04 | 2.2E-02 |  7.2  1.4E-02  OK|
 +----------------------+------+---------+---------+------------------+

 ======================================================================
 |                        Timescale Information                       |
 ----------------------------------------------------------------------
 |       Equation       |         Type          |      Timescale      |
 +----------------------+-----------------------+---------------------+
 | U-Mom                | Auto Timescale        |     1.97219E-01     |
 | V-Mom                | Auto Timescale        |     1.97219E-01     |
 | W-Mom                | Auto Timescale        |     1.97219E-01     |
 +----------------------+-----------------------+---------------------+
 | H-Energy             | Auto Timescale        |     1.97219E-01     |
 +----------------------+-----------------------+---------------------+
 | K-TurbKE             | Auto Timescale        |     1.97219E-01     |
 | E-Diss.K             | Auto Timescale        |     1.97219E-01     |
 +----------------------+-----------------------+---------------------+

 ======================================================================
 OUTER LOOP ITERATION =  376 (   15) CPU SECONDS = 2.690E+02 (1.979E+01)
 ----------------------------------------------------------------------
 |       Equation       | Rate | RMS Res | Max Res |  Linear Solution |
 +----------------------+------+---------+---------+------------------+
 | U-Mom                | 0.87 | 1.6E-04 | 4.6E-03 |       8.3E-02  OK|
 | V-Mom                | 0.85 | 1.9E-04 | 3.7E-03 |       8.3E-02  OK|
 | W-Mom                | 0.87 | 1.5E-04 | 3.3E-03 |       1.0E-01  ok|
 | P-Mass               | 0.90 | 2.8E-05 | 2.8E-04 |  9.4  9.7E-02  OK|
 +----------------------+------+---------+---------+------------------+
 | H-Energy             | 0.86 | 3.7E-04 | 5.2E-03 |  5.4  5.5E-02  OK|
 +----------------------+------+---------+---------+------------------+
 | K-TurbKE             | 0.95 | 4.3E-04 | 3.6E-03 |  5.4  5.3E-02  OK|
 | E-Diss.K             | 0.89 | 6.8E-04 | 1.9E-02 |  7.2  1.5E-02  OK|
 +----------------------+------+---------+---------+------------------+

 ======================================================================
 OUTER LOOP ITERATION =  377 (   16) CPU SECONDS = 2.702E+02 (2.099E+01)
 ----------------------------------------------------------------------
 |       Equation       | Rate | RMS Res | Max Res |  Linear Solution |
 +----------------------+------+---------+---------+------------------+
 | U-Mom                | 0.89 | 1.4E-04 | 4.7E-03 |       8.3E-02  OK|
 | V-Mom                | 0.90 | 1.7E-04 | 3.8E-03 |       8.0E-02  OK|
 | W-Mom                | 0.90 | 1.3E-04 | 3.0E-03 |       1.1E-01  ok|
 | P-Mass               | 0.91 | 2.5E-05 | 2.5E-04 |  9.4  1.0E-01  OK|
 +----------------------+------+---------+---------+------------------+
 | H-Energy             | 0.88 | 3.3E-04 | 4.7E-03 |  5.4  5.7E-02  OK|
 +----------------------+------+---------+---------+------------------+
 | K-TurbKE             | 0.96 | 4.1E-04 | 2.8E-03 |  5.4  5.2E-02  OK|
 | E-Diss.K             | 0.90 | 6.1E-04 | 1.6E-02 |  7.2  1.6E-02  OK|
 +----------------------+------+---------+---------+------------------+

 ======================================================================
 OUTER LOOP ITERATION =  378 (   17) CPU SECONDS = 2.714E+02 (2.215E+01)
 ----------------------------------------------------------------------
 |       Equation       | Rate | RMS Res | Max Res |  Linear Solution |
 +----------------------+------+---------+---------+------------------+
 | U-Mom                | 0.90 | 1.2E-04 | 4.7E-03 |       3.2E-02  OK|
 | V-Mom                | 0.92 | 1.6E-04 | 3.9E-03 |       2.9E-02  OK|
 | W-Mom                | 0.91 | 1.2E-04 | 2.5E-03 |       5.4E-02  OK|
 | P-Mass               | 0.91 | 2.3E-05 | 2.2E-04 | 13.6  4.0E-02  OK|
 +----------------------+------+---------+---------+------------------+
 | H-Energy             | 0.90 | 2.9E-04 | 4.4E-03 |  5.4  5.7E-02  OK|
 +----------------------+------+---------+---------+------------------+
 | K-TurbKE             | 0.97 | 4.0E-04 | 2.5E-03 |  5.4  5.2E-02  OK|
 | E-Diss.K             | 0.94 | 5.7E-04 | 1.5E-02 |  7.2  1.6E-02  OK|
 +----------------------+------+---------+---------+------------------+

 ======================================================================
 OUTER LOOP ITERATION =  379 (   18) CPU SECONDS = 2.726E+02 (2.339E+01)
 ----------------------------------------------------------------------
 |       Equation       | Rate | RMS Res | Max Res |  Linear Solution |
 +----------------------+------+---------+---------+------------------+
 | U-Mom                | 0.90 | 1.1E-04 | 4.6E-03 |       7.9E-02  OK|
 | V-Mom                | 0.95 | 1.5E-04 | 3.9E-03 |       7.1E-02  OK|
 | W-Mom                | 0.93 | 1.1E-04 | 2.4E-03 |       9.6E-02  OK|
 | P-Mass               | 0.96 | 2.2E-05 | 2.1E-04 |  9.4  9.6E-02  OK|
 +----------------------+------+---------+---------+------------------+
 | H-Energy             | 0.90 | 2.6E-04 | 3.8E-03 |  5.4  5.9E-02  OK|
 +----------------------+------+---------+---------+------------------+
 | K-TurbKE             | 0.96 | 3.8E-04 | 2.3E-03 |  5.4  5.2E-02  OK|
 | E-Diss.K             | 0.90 | 5.2E-04 | 1.2E-02 |  7.2  1.7E-02  OK|
 +----------------------+------+---------+---------+------------------+

 ======================================================================
 OUTER LOOP ITERATION =  380 (   19) CPU SECONDS = 2.738E+02 (2.458E+01)
 ----------------------------------------------------------------------
 |       Equation       | Rate | RMS Res | Max Res |  Linear Solution |
 +----------------------+------+---------+---------+------------------+
 | U-Mom                | 0.92 | 1.0E-04 | 4.3E-03 |       3.1E-02  OK|
 | V-Mom                | 0.96 | 1.4E-04 | 4.1E-03 |       2.7E-02  OK|
 | W-Mom                | 0.95 | 1.1E-04 | 2.6E-03 |       5.2E-02  OK|
 | P-Mass               | 0.88 | 2.0E-05 | 1.6E-04 | 13.6  4.1E-02  OK|
 +----------------------+------+---------+---------+------------------+
 | H-Energy             | 0.91 | 2.4E-04 | 3.5E-03 |  5.4  6.1E-02  OK|
 +----------------------+------+---------+---------+------------------+
 | K-TurbKE             | 0.97 | 3.7E-04 | 2.3E-03 |  5.4  5.2E-02  OK|
 | E-Diss.K             | 0.95 | 4.9E-04 | 1.2E-02 |  7.2  1.6E-02  OK|
 +----------------------+------+---------+---------+------------------+

 ======================================================================
 |                        Timescale Information                       |
 ----------------------------------------------------------------------
 |       Equation       |         Type          |      Timescale      |
 +----------------------+-----------------------+---------------------+
 | U-Mom                | Auto Timescale        |     1.95379E-01     |
 | V-Mom                | Auto Timescale        |     1.95379E-01     |
 | W-Mom                | Auto Timescale        |     1.95379E-01     |
 +----------------------+-----------------------+---------------------+
 | H-Energy             | Auto Timescale        |     1.95379E-01     |
 +----------------------+-----------------------+---------------------+
 | K-TurbKE             | Auto Timescale        |     1.95379E-01     |
 | E-Diss.K             | Auto Timescale        |     1.95379E-01     |
 +----------------------+-----------------------+---------------------+

 ======================================================================
 OUTER LOOP ITERATION =  381 (   20) CPU SECONDS = 2.751E+02 (2.586E+01)
 ----------------------------------------------------------------------
 |       Equation       | Rate | RMS Res | Max Res |  Linear Solution |
 +----------------------+------+---------+---------+------------------+
 | U-Mom                | 0.93 | 9.6E-05 | 4.1E-03 |       8.0E-02  OK|
 | V-Mom                | 0.96 | 1.4E-04 | 4.5E-03 |       6.6E-02  OK|
 | W-Mom                | 0.97 | 1.0E-04 | 2.8E-03 |       9.6E-02  OK|
 | P-Mass               | 0.98 | 1.9E-05 | 1.6E-04 |  9.4  9.6E-02  OK|
 +----------------------+------+---------+---------+------------------+
 | H-Energy             | 0.92 | 2.2E-04 | 3.2E-03 |  5.4  6.2E-02  OK|
 +----------------------+------+---------+---------+------------------+
 | K-TurbKE             | 0.96 | 3.6E-04 | 2.3E-03 |  5.4  5.1E-02  OK|
 | E-Diss.K             | 0.91 | 4.5E-04 | 1.1E-02 |  7.2  1.7E-02  OK|
 +----------------------+------+---------+---------+------------------+

 ======================================================================
 OUTER LOOP ITERATION =  382 (   21) CPU SECONDS = 2.763E+02 (2.705E+01)
 ----------------------------------------------------------------------
 |       Equation       | Rate | RMS Res | Max Res |  Linear Solution |
 +----------------------+------+---------+---------+------------------+
 | U-Mom                | 0.97 | 9.3E-05 | 4.0E-03 |       3.1E-02  OK|
 | V-Mom                | 0.96 | 1.3E-04 | 4.4E-03 |       2.5E-02  OK|
 | W-Mom                | 0.96 | 9.8E-05 | 2.8E-03 |       5.0E-02  OK|
 | P-Mass               | 0.90 | 1.7E-05 | 1.6E-04 | 13.6  4.2E-02  OK|
 +----------------------+------+---------+---------+------------------+
 | H-Energy             | 0.94 | 2.1E-04 | 2.9E-03 |  5.4  6.4E-02  OK|
 +----------------------+------+---------+---------+------------------+
 | K-TurbKE             | 0.96 | 3.4E-04 | 2.2E-03 |  5.4  5.2E-02  OK|
 | E-Diss.K             | 0.97 | 4.4E-04 | 1.1E-02 |  7.2  1.7E-02  OK|
 +----------------------+------+---------+---------+------------------+

 ======================================================================
 OUTER LOOP ITERATION =  383 (   22) CPU SECONDS = 2.775E+02 (2.825E+01)
 ----------------------------------------------------------------------
 |       Equation       | Rate | RMS Res | Max Res |  Linear Solution |
 +----------------------+------+---------+---------+------------------+
 | U-Mom                | 0.98 | 9.1E-05 | 3.9E-03 |       7.6E-02  OK|
 | V-Mom                | 0.95 | 1.2E-04 | 4.1E-03 |       6.4E-02  OK|
 | W-Mom                | 0.98 | 9.6E-05 | 2.8E-03 |       9.1E-02  OK|
 | P-Mass               | 0.99 | 1.7E-05 | 1.7E-04 |  9.4  9.5E-02  OK|
 +----------------------+------+---------+---------+------------------+
 | H-Energy             | 0.95 | 2.0E-04 | 2.6E-03 |  5.4  6.5E-02  OK|
 +----------------------+------+---------+---------+------------------+
 | K-TurbKE             | 0.95 | 3.2E-04 | 2.1E-03 |  5.4  5.1E-02  OK|
 | E-Diss.K             | 0.93 | 4.0E-04 | 9.7E-03 |  7.2  1.7E-02  OK|
 +----------------------+------+---------+---------+------------------+

 ======================================================================
 OUTER LOOP ITERATION =  384 (   23) CPU SECONDS = 2.786E+02 (2.938E+01)
 ----------------------------------------------------------------------
 |       Equation       | Rate | RMS Res | Max Res |  Linear Solution |
 +----------------------+------+---------+---------+------------------+
 | U-Mom                | 1.01 | 9.3E-05 | 3.9E-03 |       2.8E-02  OK|
 | V-Mom                | 0.94 | 1.2E-04 | 3.8E-03 |       2.6E-02  OK|
 | W-Mom                | 0.97 | 9.3E-05 | 2.6E-03 |       4.7E-02  OK|
 | P-Mass               | 0.91 | 1.6E-05 | 1.6E-04 | 13.6  4.3E-02  OK|
 +----------------------+------+---------+---------+------------------+
 | H-Energy             | 0.96 | 1.9E-04 | 2.6E-03 |  5.4  6.6E-02  OK|
 +----------------------+------+---------+---------+------------------+
 | K-TurbKE             | 0.95 | 3.1E-04 | 2.0E-03 |  5.4  5.2E-02  OK|
 | E-Diss.K             | 0.97 | 3.9E-04 | 9.9E-03 |  7.2  1.7E-02  OK|
 +----------------------+------+---------+---------+------------------+

 ======================================================================
 OUTER LOOP ITERATION =  385 (   24) CPU SECONDS = 2.798E+02 (3.055E+01)
 ----------------------------------------------------------------------
 |       Equation       | Rate | RMS Res | Max Res |  Linear Solution |
 +----------------------+------+---------+---------+------------------+
 | U-Mom                | 1.00 | 9.3E-05 | 3.8E-03 |       6.7E-02  OK|
 | V-Mom                | 0.93 | 1.1E-04 | 3.9E-03 |       6.7E-02  OK|
 | W-Mom                | 0.98 | 9.2E-05 | 2.4E-03 |       8.6E-02  OK|
 | P-Mass               | 1.00 | 1.6E-05 | 1.6E-04 |  9.4  9.5E-02  OK|
 +----------------------+------+---------+---------+------------------+
 | H-Energy             | 0.98 | 1.9E-04 | 2.4E-03 |  5.4  6.6E-02  OK|
 +----------------------+------+---------+---------+------------------+
 | K-TurbKE             | 0.95 | 2.9E-04 | 2.0E-03 |  5.4  5.2E-02  OK|
 | E-Diss.K             | 0.93 | 3.6E-04 | 9.0E-03 |  7.2  1.7E-02  OK|
 +----------------------+------+---------+---------+------------------+

 ======================================================================
 |                        Timescale Information                       |
 ----------------------------------------------------------------------
 |       Equation       |         Type          |      Timescale      |
 +----------------------+-----------------------+---------------------+
 | U-Mom                | Auto Timescale        |     1.93569E-01     |
 | V-Mom                | Auto Timescale        |     1.93569E-01     |
 | W-Mom                | Auto Timescale        |     1.93569E-01     |
 +----------------------+-----------------------+---------------------+
 | H-Energy             | Auto Timescale        |     1.93569E-01     |
 +----------------------+-----------------------+---------------------+
 | K-TurbKE             | Auto Timescale        |     1.93569E-01     |
 | E-Diss.K             | Auto Timescale        |     1.93569E-01     |
 +----------------------+-----------------------+---------------------+

 ======================================================================
 OUTER LOOP ITERATION =  386 (   25) CPU SECONDS = 2.809E+02 (3.166E+01)
 ----------------------------------------------------------------------
 |       Equation       | Rate | RMS Res | Max Res |  Linear Solution |
 +----------------------+------+---------+---------+------------------+
 | U-Mom                | 1.00 | 9.3E-05 | 4.0E-03 |       2.5E-02  OK|
 | V-Mom                | 0.94 | 1.0E-04 | 4.0E-03 |       2.7E-02  OK|
 | W-Mom                | 0.97 | 8.9E-05 | 2.2E-03 |       4.4E-02  OK|
 | P-Mass               | 0.91 | 1.4E-05 | 1.6E-04 | 13.6  4.3E-02  OK|
 +----------------------+------+---------+---------+------------------+
 | H-Energy             | 0.99 | 1.8E-04 | 2.2E-03 |  5.4  6.6E-02  OK|
 +----------------------+------+---------+---------+------------------+
 | K-TurbKE             | 0.95 | 2.8E-04 | 1.9E-03 |  5.4  5.1E-02  OK|
 | E-Diss.K             | 0.96 | 3.5E-04 | 9.2E-03 |  7.2  1.7E-02  OK|
 +----------------------+------+---------+---------+------------------+

 ======================================================================
 OUTER LOOP ITERATION =  387 (   26) CPU SECONDS = 2.822E+02 (3.291E+01)
 ----------------------------------------------------------------------
 |       Equation       | Rate | RMS Res | Max Res |  Linear Solution |
 +----------------------+------+---------+---------+------------------+
 | U-Mom                | 0.98 | 9.1E-05 | 4.1E-03 |       5.7E-02  OK|
 | V-Mom                | 0.95 | 9.8E-05 | 4.1E-03 |       7.0E-02  OK|
 | W-Mom                | 0.99 | 8.8E-05 | 2.1E-03 |       8.3E-02  OK|
 | P-Mass               | 1.00 | 1.4E-05 | 1.6E-04 |  9.4  9.4E-02  OK|
 +----------------------+------+---------+---------+------------------+
 | H-Energy             | 1.01 | 1.8E-04 | 2.0E-03 |  5.4  6.6E-02  OK|
 +----------------------+------+---------+---------+------------------+
 | K-TurbKE             | 0.94 | 2.6E-04 | 1.9E-03 |  5.4  5.1E-02  OK|
 | E-Diss.K             | 0.92 | 3.2E-04 | 8.3E-03 |  7.2  1.7E-02  OK|
 +----------------------+------+---------+---------+------------------+

 ======================================================================
 OUTER LOOP ITERATION =  388 (   27) CPU SECONDS = 2.834E+02 (3.412E+01)
 ----------------------------------------------------------------------
 |       Equation       | Rate | RMS Res | Max Res |  Linear Solution |
 +----------------------+------+---------+---------+------------------+
 | U-Mom                | 0.97 | 8.9E-05 | 4.1E-03 |       2.3E-02  OK|
 | V-Mom                | 0.97 | 9.5E-05 | 4.3E-03 |       2.8E-02  OK|
 | W-Mom                | 0.98 | 8.6E-05 | 2.0E-03 |       4.2E-02  OK|
 | P-Mass               | 0.91 | 1.3E-05 | 1.5E-04 | 13.6  4.4E-02  OK|
 +----------------------+------+---------+---------+------------------+
 | H-Energy             | 1.01 | 1.9E-04 | 2.0E-03 |  5.4  6.6E-02  OK|
 +----------------------+------+---------+---------+------------------+
 | K-TurbKE             | 0.94 | 2.5E-04 | 1.9E-03 |  5.4  5.1E-02  OK|
 | E-Diss.K             | 0.96 | 3.1E-04 | 8.0E-03 |  7.2  1.6E-02  OK|
 +----------------------+------+---------+---------+------------------+

 ======================================================================
 OUTER LOOP ITERATION =  389 (   28) CPU SECONDS = 2.847E+02 (3.546E+01)
 ----------------------------------------------------------------------
 |       Equation       | Rate | RMS Res | Max Res |  Linear Solution |
 +----------------------+------+---------+---------+------------------+
 | U-Mom                | 0.96 | 8.5E-05 | 4.3E-03 |       5.4E-02  OK|
 | V-Mom                | 0.98 | 9.3E-05 | 4.5E-03 |       6.9E-02  OK|
 | W-Mom                | 0.99 | 8.6E-05 | 1.8E-03 |       8.2E-02  OK|
 | P-Mass               | 1.01 | 1.3E-05 | 1.4E-04 |  9.4  9.4E-02  OK|
 +----------------------+------+---------+---------+------------------+
 | H-Energy             | 1.01 | 1.9E-04 | 2.0E-03 |  5.4  6.6E-02  OK|
 +----------------------+------+---------+---------+------------------+
 | K-TurbKE             | 0.94 | 2.3E-04 | 1.9E-03 |  5.4  5.1E-02  OK|
 | E-Diss.K             | 0.92 | 2.8E-04 | 7.0E-03 |  7.2  1.7E-02  OK|
 +----------------------+------+---------+---------+------------------+

 ======================================================================
 OUTER LOOP ITERATION =  390 (   29) CPU SECONDS = 2.859E+02 (3.668E+01)
 ----------------------------------------------------------------------
 |       Equation       | Rate | RMS Res | Max Res |  Linear Solution |
 +----------------------+------+---------+---------+------------------+
 | U-Mom                | 0.96 | 8.2E-05 | 4.4E-03 |       2.4E-02  OK|
 | V-Mom                | 0.99 | 9.2E-05 | 4.7E-03 |       2.7E-02  OK|
 | W-Mom                | 0.98 | 8.4E-05 | 1.8E-03 |       4.1E-02  OK|
 | P-Mass               | 0.92 | 1.2E-05 | 1.4E-04 | 13.6  4.5E-02  OK|
 +----------------------+------+---------+---------+------------------+
 | H-Energy             | 1.01 | 1.9E-04 | 1.9E-03 |  5.4  6.7E-02  OK|
 +----------------------+------+---------+---------+------------------+
 | K-TurbKE             | 0.94 | 2.2E-04 | 1.8E-03 |  5.4  5.1E-02  OK|
 | E-Diss.K             | 0.96 | 2.7E-04 | 7.0E-03 |  7.2  1.6E-02  OK|
 +----------------------+------+---------+---------+------------------+

 ======================================================================
 |                        Timescale Information                       |
 ----------------------------------------------------------------------
 |       Equation       |         Type          |      Timescale      |
 +----------------------+-----------------------+---------------------+
 | U-Mom                | Auto Timescale        |     1.91915E-01     |
 | V-Mom                | Auto Timescale        |     1.91915E-01     |
 | W-Mom                | Auto Timescale        |     1.91915E-01     |
 +----------------------+-----------------------+---------------------+
 | H-Energy             | Auto Timescale        |     1.91915E-01     |
 +----------------------+-----------------------+---------------------+
 | K-TurbKE             | Auto Timescale        |     1.91915E-01     |
 | E-Diss.K             | Auto Timescale        |     1.91915E-01     |
 +----------------------+-----------------------+---------------------+

 ======================================================================
 OUTER LOOP ITERATION =  391 (   30) CPU SECONDS = 2.871E+02 (3.781E+01)
 ----------------------------------------------------------------------
 |       Equation       | Rate | RMS Res | Max Res |  Linear Solution |
 +----------------------+------+---------+---------+------------------+
 | U-Mom                | 0.96 | 7.8E-05 | 4.5E-03 |       5.9E-02  OK|
 | V-Mom                | 0.98 | 9.0E-05 | 4.7E-03 |       6.3E-02  OK|
 | W-Mom                | 0.99 | 8.3E-05 | 2.1E-03 |       8.0E-02  OK|
 | P-Mass               | 1.01 | 1.2E-05 | 1.3E-04 |  9.4  9.4E-02  OK|
 +----------------------+------+---------+---------+------------------+
 | H-Energy             | 1.01 | 1.9E-04 | 2.1E-03 |  5.4  6.6E-02  OK|
 +----------------------+------+---------+---------+------------------+
 | K-TurbKE             | 0.94 | 2.1E-04 | 1.7E-03 |  5.4  5.0E-02  OK|
 | E-Diss.K             | 0.92 | 2.5E-04 | 6.1E-03 |  7.2  1.6E-02  OK|
 +----------------------+------+---------+---------+------------------+

 ======================================================================
 OUTER LOOP ITERATION =  392 (   31) CPU SECONDS = 2.882E+02 (3.894E+01)
 ----------------------------------------------------------------------
 |       Equation       | Rate | RMS Res | Max Res |  Linear Solution |
 +----------------------+------+---------+---------+------------------+
 | U-Mom                | 0.98 | 7.7E-05 | 4.6E-03 |       2.5E-02  OK|
 | V-Mom                | 0.98 | 8.9E-05 | 4.8E-03 |       2.5E-02  OK|
 | W-Mom                | 0.98 | 8.1E-05 | 2.3E-03 |       3.9E-02  OK|
 | P-Mass               | 0.92 | 1.1E-05 | 1.2E-04 | 13.6  4.5E-02  OK|
 +----------------------+------+---------+---------+------------------+
 | H-Energy             | 1.00 | 1.9E-04 | 2.1E-03 |  5.4  6.6E-02  OK|
 +----------------------+------+---------+---------+------------------+
 | K-TurbKE             | 0.94 | 1.9E-04 | 1.6E-03 |  5.4  4.9E-02  OK|
 | E-Diss.K             | 0.96 | 2.4E-04 | 6.1E-03 |  7.2  1.5E-02  OK|
 +----------------------+------+---------+---------+------------------+

 ======================================================================
 OUTER LOOP ITERATION =  393 (   32) CPU SECONDS = 2.894E+02 (4.010E+01)
 ----------------------------------------------------------------------
 |       Equation       | Rate | RMS Res | Max Res |  Linear Solution |
 +----------------------+------+---------+---------+------------------+
 | U-Mom                | 0.98 | 7.5E-05 | 4.7E-03 |       6.6E-02  OK|
 | V-Mom                | 0.97 | 8.6E-05 | 4.9E-03 |       5.6E-02  OK|
 | W-Mom                | 0.99 | 8.0E-05 | 2.5E-03 |       7.7E-02  OK|
 | P-Mass               | 1.02 | 1.1E-05 | 1.2E-04 |  9.4  9.4E-02  OK|
 +----------------------+------+---------+---------+------------------+
 | H-Energy             | 1.00 | 1.9E-04 | 2.3E-03 |  5.4  6.6E-02  OK|
 +----------------------+------+---------+---------+------------------+
 | K-TurbKE             | 0.94 | 1.8E-04 | 1.6E-03 |  5.4  4.9E-02  OK|
 | E-Diss.K             | 0.93 | 2.2E-04 | 5.5E-03 |  7.2  1.5E-02  OK|
 +----------------------+------+---------+---------+------------------+

 ======================================================================
 OUTER LOOP ITERATION =  394 (   33) CPU SECONDS = 2.905E+02 (4.122E+01)
 ----------------------------------------------------------------------
 |       Equation       | Rate | RMS Res | Max Res |  Linear Solution |
 +----------------------+------+---------+---------+------------------+
 | U-Mom                | 0.99 | 7.5E-05 | 4.5E-03 |       2.6E-02  OK|
 | V-Mom                | 0.96 | 8.3E-05 | 4.8E-03 |       2.4E-02  OK|
 | W-Mom                | 0.97 | 7.8E-05 | 2.6E-03 |       3.7E-02  OK|
 | P-Mass               | 0.93 | 1.1E-05 | 1.2E-04 | 13.6  4.6E-02  OK|
 +----------------------+------+---------+---------+------------------+
 | H-Energy             | 0.99 | 1.9E-04 | 2.0E-03 |  5.4  6.6E-02  OK|
 +----------------------+------+---------+---------+------------------+
 | K-TurbKE             | 0.94 | 1.7E-04 | 1.7E-03 |  5.4  4.9E-02  OK|
 | E-Diss.K             | 0.97 | 2.1E-04 | 5.6E-03 |  7.2  1.5E-02  OK|
 +----------------------+------+---------+---------+------------------+

 ======================================================================
 OUTER LOOP ITERATION =  395 (   34) CPU SECONDS = 2.916E+02 (4.237E+01)
 ----------------------------------------------------------------------
 |       Equation       | Rate | RMS Res | Max Res |  Linear Solution |
 +----------------------+------+---------+---------+------------------+
 | U-Mom                | 0.98 | 7.3E-05 | 4.3E-03 |       6.6E-02  OK|
 | V-Mom                | 0.95 | 7.9E-05 | 4.6E-03 |       5.6E-02  OK|
 | W-Mom                | 0.98 | 7.7E-05 | 2.6E-03 |       7.4E-02  OK|
 | P-Mass               | 1.02 | 1.1E-05 | 1.1E-04 |  9.4  9.5E-02  OK|
 +----------------------+------+---------+---------+------------------+
 | H-Energy             | 1.00 | 1.9E-04 | 2.2E-03 |  5.4  6.6E-02  OK|
 +----------------------+------+---------+---------+------------------+
 | K-TurbKE             | 0.94 | 1.6E-04 | 1.8E-03 |  5.4  4.8E-02  OK|
 | E-Diss.K             | 0.93 | 2.0E-04 | 5.2E-03 |  7.2  1.5E-02  OK|
 +----------------------+------+---------+---------+------------------+

 ======================================================================
 |                        Timescale Information                       |
 ----------------------------------------------------------------------
 |       Equation       |         Type          |      Timescale      |
 +----------------------+-----------------------+---------------------+
 | U-Mom                | Auto Timescale        |     1.90445E-01     |
 | V-Mom                | Auto Timescale        |     1.90445E-01     |
 | W-Mom                | Auto Timescale        |     1.90445E-01     |
 +----------------------+-----------------------+---------------------+
 | H-Energy             | Auto Timescale        |     1.90445E-01     |
 +----------------------+-----------------------+---------------------+
 | K-TurbKE             | Auto Timescale        |     1.90445E-01     |
 | E-Diss.K             | Auto Timescale        |     1.90445E-01     |
 +----------------------+-----------------------+---------------------+

 ======================================================================
 OUTER LOOP ITERATION =  396 (   35) CPU SECONDS = 2.927E+02 (4.347E+01)
 ----------------------------------------------------------------------
 |       Equation       | Rate | RMS Res | Max Res |  Linear Solution |
 +----------------------+------+---------+---------+------------------+
 | U-Mom                | 0.99 | 7.3E-05 | 4.1E-03 |       2.5E-02  OK|
 | V-Mom                | 0.96 | 7.5E-05 | 4.5E-03 |       2.4E-02  OK|
 | W-Mom                | 0.97 | 7.5E-05 | 2.6E-03 |       3.6E-02  OK|
 | P-Mass               | 0.93 | 1.0E-05 | 1.1E-04 | 13.6  4.6E-02  OK|
 +----------------------+------+---------+---------+------------------+
 | H-Energy             | 0.98 | 1.9E-04 | 2.3E-03 |  5.4  6.5E-02  OK|
 +----------------------+------+---------+---------+------------------+
 | K-TurbKE             | 0.94 | 1.5E-04 | 1.9E-03 |  5.4  4.8E-02  OK|
 | E-Diss.K             | 0.96 | 1.9E-04 | 5.3E-03 |  7.2  1.5E-02  OK|
 +----------------------+------+---------+---------+------------------+

 ======================================================================
 OUTER LOOP ITERATION =  397 (   36) CPU SECONDS = 2.939E+02 (4.463E+01)
 ----------------------------------------------------------------------
 |       Equation       | Rate | RMS Res | Max Res |  Linear Solution |
 +----------------------+------+---------+---------+------------------+
 | U-Mom                | 0.98 | 7.1E-05 | 3.9E-03 |       5.8E-02  OK|
 | V-Mom                | 0.95 | 7.2E-05 | 4.2E-03 |       6.0E-02  OK|
 | W-Mom                | 0.99 | 7.4E-05 | 2.6E-03 |       7.0E-02  OK|
 | P-Mass               | 1.02 | 1.0E-05 | 1.1E-04 |  9.4  9.5E-02  OK|
 +----------------------+------+---------+---------+------------------+
 | H-Energy             | 0.99 | 1.9E-04 | 2.4E-03 |  5.4  6.4E-02  OK|
 +----------------------+------+---------+---------+------------------+
 | K-TurbKE             | 0.95 | 1.5E-04 | 2.0E-03 |  5.4  4.7E-02  OK|
 | E-Diss.K             | 0.93 | 1.8E-04 | 4.9E-03 |  7.2  1.5E-02  OK|
 +----------------------+------+---------+---------+------------------+

 ======================================================================
 OUTER LOOP ITERATION =  398 (   37) CPU SECONDS = 2.950E+02 (4.574E+01)
 ----------------------------------------------------------------------
 |       Equation       | Rate | RMS Res | Max Res |  Linear Solution |
 +----------------------+------+---------+---------+------------------+
 | U-Mom                | 0.99 | 7.1E-05 | 3.7E-03 |       2.2E-02  OK|
 | V-Mom                | 0.96 | 6.9E-05 | 4.0E-03 |       2.6E-02  OK|
 | W-Mom                | 0.98 | 7.2E-05 | 2.6E-03 |       3.5E-02  OK|
 | P-Mass               | 0.93 | 9.5E-06 | 1.0E-04 | 13.6  4.7E-02  OK|
 +----------------------+------+---------+---------+------------------+
 | H-Energy             | 0.98 | 1.8E-04 | 2.4E-03 |  5.4  6.3E-02  OK|
 +----------------------+------+---------+---------+------------------+
 | K-TurbKE             | 0.95 | 1.4E-04 | 2.1E-03 |  5.4  4.7E-02  OK|
 | E-Diss.K             | 0.97 | 1.7E-04 | 5.1E-03 |  7.2  1.5E-02  OK|
 +----------------------+------+---------+---------+------------------+

 ======================================================================
 OUTER LOOP ITERATION =  399 (   38) CPU SECONDS = 2.961E+02 (4.688E+01)
 ----------------------------------------------------------------------
 |       Equation       | Rate | RMS Res | Max Res |  Linear Solution |
 +----------------------+------+---------+---------+------------------+
 | U-Mom                | 0.98 | 6.9E-05 | 3.5E-03 |       5.1E-02  OK|
 | V-Mom                | 0.96 | 6.6E-05 | 3.7E-03 |       6.5E-02  OK|
 | W-Mom                | 0.98 | 7.1E-05 | 2.6E-03 |       6.8E-02  OK|
 | P-Mass               | 1.01 | 9.7E-06 | 9.7E-05 |  9.4  9.7E-02  OK|
 +----------------------+------+---------+---------+------------------+
 | H-Energy             | 0.99 | 1.8E-04 | 2.4E-03 |  5.4  6.2E-02  OK|
 +----------------------+------+---------+---------+------------------+
 | K-TurbKE             | 0.96 | 1.3E-04 | 2.2E-03 |  5.4  4.6E-02  OK|
 | E-Diss.K             | 0.92 | 1.6E-04 | 4.5E-03 |  7.2  1.6E-02  OK|
 +----------------------+------+---------+---------+------------------+

 ======================================================================
 OUTER LOOP ITERATION =  400 (   39) CPU SECONDS = 2.972E+02 (4.798E+01)
 ----------------------------------------------------------------------
 |       Equation       | Rate | RMS Res | Max Res |  Linear Solution |
 +----------------------+------+---------+---------+------------------+
 | U-Mom                | 0.99 | 6.8E-05 | 3.3E-03 |       2.0E-02  OK|
 | V-Mom                | 0.97 | 6.4E-05 | 3.6E-03 |       2.7E-02  OK|
 | W-Mom                | 0.97 | 6.9E-05 | 2.6E-03 |       3.5E-02  OK|
 | P-Mass               | 0.93 | 9.0E-06 | 9.4E-05 | 13.6  4.8E-02  OK|
 +----------------------+------+---------+---------+------------------+
 | H-Energy             | 0.97 | 1.8E-04 | 2.4E-03 |  5.4  6.2E-02  OK|
 +----------------------+------+---------+---------+------------------+
 | K-TurbKE             | 0.96 | 1.3E-04 | 2.3E-03 |  5.4  4.6E-02  OK|
 | E-Diss.K             | 0.96 | 1.5E-04 | 4.4E-03 |  7.2  1.5E-02  OK|
 +----------------------+------+---------+---------+------------------+

 ======================================================================
 |                        Timescale Information                       |
 ----------------------------------------------------------------------
 |       Equation       |         Type          |      Timescale      |
 +----------------------+-----------------------+---------------------+
 | U-Mom                | Auto Timescale        |     1.89087E-01     |
 | V-Mom                | Auto Timescale        |     1.89087E-01     |
 | W-Mom                | Auto Timescale        |     1.89087E-01     |
 +----------------------+-----------------------+---------------------+
 | H-Energy             | Auto Timescale        |     1.89087E-01     |
 +----------------------+-----------------------+---------------------+
 | K-TurbKE             | Auto Timescale        |     1.89087E-01     |
 | E-Diss.K             | Auto Timescale        |     1.89087E-01     |
 +----------------------+-----------------------+---------------------+

 ======================================================================
 OUTER LOOP ITERATION =  401 (   40) CPU SECONDS = 2.984E+02 (4.912E+01)
 ----------------------------------------------------------------------
 |       Equation       | Rate | RMS Res | Max Res |  Linear Solution |
 +----------------------+------+---------+---------+------------------+
 | U-Mom                | 0.98 | 6.7E-05 | 3.2E-03 |       5.0E-02  OK|
 | V-Mom                | 0.96 | 6.2E-05 | 3.4E-03 |       6.5E-02  OK|
 | W-Mom                | 0.98 | 6.7E-05 | 2.5E-03 |       6.5E-02  OK|
 | P-Mass               | 1.01 | 9.1E-06 | 9.4E-05 |  9.4  1.0E-01  OK|
 +----------------------+------+---------+---------+------------------+
 | H-Energy             | 0.98 | 1.7E-04 | 2.3E-03 |  5.4  6.1E-02  OK|
 +----------------------+------+---------+---------+------------------+
 | K-TurbKE             | 0.97 | 1.2E-04 | 2.4E-03 |  5.4  4.5E-02  OK|
 | E-Diss.K             | 0.91 | 1.4E-04 | 3.8E-03 |  7.2  1.6E-02  OK|
 +----------------------+------+---------+---------+------------------+

 ======================================================================
 OUTER LOOP ITERATION =  402 (   41) CPU SECONDS = 2.995E+02 (5.026E+01)
 ----------------------------------------------------------------------
 |       Equation       | Rate | RMS Res | Max Res |  Linear Solution |
 +----------------------+------+---------+---------+------------------+
 | U-Mom                | 0.99 | 6.6E-05 | 2.9E-03 |       2.1E-02  OK|
 | V-Mom                | 0.97 | 6.0E-05 | 3.1E-03 |       2.7E-02  OK|
 | W-Mom                | 0.97 | 6.5E-05 | 2.4E-03 |       3.5E-02  OK|
 | P-Mass               | 0.93 | 8.5E-06 | 9.1E-05 | 13.6  4.9E-02  OK|
 +----------------------+------+---------+---------+------------------+
 | H-Energy             | 0.97 | 1.7E-04 | 2.2E-03 |  5.4  6.1E-02  OK|
 +----------------------+------+---------+---------+------------------+
 | K-TurbKE             | 0.97 | 1.2E-04 | 2.5E-03 |  5.4  4.5E-02  OK|
 | E-Diss.K             | 0.95 | 1.3E-04 | 3.8E-03 |  7.2  1.6E-02  OK|
 +----------------------+------+---------+---------+------------------+

 ======================================================================
 OUTER LOOP ITERATION =  403 (   42) CPU SECONDS = 3.006E+02 (5.139E+01)
 ----------------------------------------------------------------------
 |       Equation       | Rate | RMS Res | Max Res |  Linear Solution |
 +----------------------+------+---------+---------+------------------+
 | U-Mom                | 0.98 | 6.4E-05 | 2.7E-03 |       2.0E-02  OK|
 | V-Mom                | 0.96 | 5.8E-05 | 2.9E-03 |       2.3E-02  OK|
 | W-Mom                | 0.97 | 6.3E-05 | 2.2E-03 |       2.9E-02  OK|
 | P-Mass               | 1.01 | 8.5E-06 | 8.9E-05 | 13.6  4.2E-02  OK|
 +----------------------+------+---------+---------+------------------+
 | H-Energy             | 0.97 | 1.6E-04 | 2.2E-03 |  5.4  6.0E-02  OK|
 +----------------------+------+---------+---------+------------------+
 | K-TurbKE             | 0.97 | 1.2E-04 | 2.5E-03 |  5.4  4.5E-02  OK|
 | E-Diss.K             | 0.93 | 1.2E-04 | 3.4E-03 |  7.2  1.6E-02  OK|
 +----------------------+------+---------+---------+------------------+

 ======================================================================
 OUTER LOOP ITERATION =  404 (   43) CPU SECONDS = 3.018E+02 (5.253E+01)
 ----------------------------------------------------------------------
 |       Equation       | Rate | RMS Res | Max Res |  Linear Solution |
 +----------------------+------+---------+---------+------------------+
 | U-Mom                | 0.98 | 6.3E-05 | 2.5E-03 |       2.0E-02  OK|
 | V-Mom                | 0.97 | 5.6E-05 | 2.7E-03 |       2.3E-02  OK|
 | W-Mom                | 0.97 | 6.1E-05 | 2.1E-03 |       3.0E-02  OK|
 | P-Mass               | 0.96 | 8.2E-06 | 8.7E-05 | 13.6  4.4E-02  OK|
 +----------------------+------+---------+---------+------------------+
[...]
 +----------------------+-----------------------+---------------------+
 | H-Energy             | Auto Timescale        |     1.86553E-01     |
 +----------------------+-----------------------+---------------------+
 | K-TurbKE             | Auto Timescale        |     1.86553E-01     |
 | E-Diss.K             | Auto Timescale        |     1.86553E-01     |
 +----------------------+-----------------------+---------------------+

 ======================================================================
 OUTER LOOP ITERATION =  411 (   50) CPU SECONDS = 3.097E+02 (6.045E+01)
 ----------------------------------------------------------------------
 |       Equation       | Rate | RMS Res | Max Res |  Linear Solution |
 +----------------------+------+---------+---------+------------------+
 | U-Mom                | 0.97 | 5.3E-05 | 1.8E-03 |       2.3E-02  OK|
 | V-Mom                | 0.98 | 4.7E-05 | 2.2E-03 |       2.4E-02  OK|
 | W-Mom                | 0.96 | 4.8E-05 | 1.4E-03 |       3.5E-02  OK|
 | P-Mass               | 0.98 | 6.8E-06 | 6.8E-05 | 13.6  4.8E-02  OK|
 +----------------------+------+---------+---------+------------------+
 | H-Energy             | 0.95 | 1.2E-04 | 1.7E-03 |  5.4  6.1E-02  OK|
 +----------------------+------+---------+---------+------------------+
 | K-TurbKE             | 0.97 | 9.6E-05 | 2.1E-03 |  5.4  4.2E-02  OK|
 | E-Diss.K             | 0.97 | 8.3E-05 | 1.6E-03 |  7.2  1.9E-02  OK|
 +----------------------+------+---------+---------+------------------+

 ======================================================================
 OUTER LOOP ITERATION =  412 (   51) CPU SECONDS = 3.109E+02 (6.160E+01)
 ----------------------------------------------------------------------
 |       Equation       | Rate | RMS Res | Max Res |  Linear Solution |
 +----------------------+------+---------+---------+------------------+
 | U-Mom                | 0.97 | 5.1E-05 | 1.6E-03 |       2.3E-02  OK|
 | V-Mom                | 0.98 | 4.6E-05 | 2.1E-03 |       2.5E-02  OK|
 | W-Mom                | 0.96 | 4.6E-05 | 1.4E-03 |       3.6E-02  OK|
 | P-Mass               | 0.98 | 6.7E-06 | 6.6E-05 | 13.6  4.9E-02  OK|
 +----------------------+------+---------+---------+------------------+
 | H-Energy             | 0.95 | 1.2E-04 | 1.7E-03 |  5.4  6.1E-02  OK|
 +----------------------+------+---------+---------+------------------+
 | K-TurbKE             | 0.97 | 9.3E-05 | 1.9E-03 |  5.4  4.2E-02  OK|
 | E-Diss.K             | 0.98 | 8.1E-05 | 1.6E-03 |  7.2  1.9E-02  OK|
 +----------------------+------+---------+---------+------------------+

 ======================================================================
 OUTER LOOP ITERATION =  413 (   52) CPU SECONDS = 3.120E+02 (6.274E+01)
 ----------------------------------------------------------------------
 |       Equation       | Rate | RMS Res | Max Res |  Linear Solution |
 +----------------------+------+---------+---------+------------------+
 | U-Mom                | 0.97 | 5.0E-05 | 1.5E-03 |       2.3E-02  OK|
 | V-Mom                | 0.97 | 4.5E-05 | 2.0E-03 |       2.5E-02  OK|
 | W-Mom                | 0.96 | 4.4E-05 | 1.4E-03 |       3.7E-02  OK|
 | P-Mass               | 0.98 | 6.6E-06 | 6.4E-05 | 13.6  4.9E-02  OK|
 +----------------------+------+---------+---------+------------------+
 | H-Energy             | 0.95 | 1.1E-04 | 1.7E-03 |  5.4  6.1E-02  OK|
 +----------------------+------+---------+---------+------------------+
 | K-TurbKE             | 0.97 | 9.1E-05 | 1.7E-03 |  5.4  4.3E-02  OK|
 | E-Diss.K             | 0.99 | 8.0E-05 | 1.6E-03 |  7.2  1.9E-02  OK|
 +----------------------+------+---------+---------+------------------+

 ======================================================================
 OUTER LOOP ITERATION =  414 (   53) CPU SECONDS = 3.131E+02 (6.387E+01)
 ----------------------------------------------------------------------
 |       Equation       | Rate | RMS Res | Max Res |  Linear Solution |
 +----------------------+------+---------+---------+------------------+
 | U-Mom                | 0.98 | 4.8E-05 | 1.3E-03 |       2.4E-02  OK|
 | V-Mom                | 0.96 | 4.3E-05 | 1.9E-03 |       2.6E-02  OK|
 | W-Mom                | 0.95 | 4.2E-05 | 1.4E-03 |       3.9E-02  OK|
 | P-Mass               | 0.99 | 6.5E-06 | 6.1E-05 | 13.6  5.0E-02  OK|
 +----------------------+------+---------+---------+------------------+
 | H-Energy             | 0.95 | 1.0E-04 | 1.7E-03 |  5.4  6.2E-02  OK|
 +----------------------+------+---------+---------+------------------+
 | K-TurbKE             | 0.97 | 8.8E-05 | 1.5E-03 |  5.4  4.3E-02  OK|
 | E-Diss.K             | 0.99 | 8.0E-05 | 1.6E-03 |  7.2  1.9E-02  OK|
 +----------------------+------+---------+---------+------------------+

 ======================================================================
 OUTER LOOP ITERATION =  415 (   54) CPU SECONDS = 3.142E+02 (6.498E+01)
 ----------------------------------------------------------------------
 |       Equation       | Rate | RMS Res | Max Res |  Linear Solution |
 +----------------------+------+---------+---------+------------------+
 | U-Mom                | 0.98 | 4.7E-05 | 1.2E-03 |       2.4E-02  OK|
 | V-Mom                | 0.96 | 4.2E-05 | 1.8E-03 |       2.6E-02  OK|
 | W-Mom                | 0.95 | 4.0E-05 | 1.4E-03 |       4.0E-02  OK|
 | P-Mass               | 0.99 | 6.4E-06 | 5.8E-05 | 13.6  5.0E-02  OK|
 +----------------------+------+---------+---------+------------------+
 | H-Energy             | 0.95 | 1.0E-04 | 1.6E-03 |  5.4  6.2E-02  OK|
 +----------------------+------+---------+---------+------------------+
 | K-TurbKE             | 0.97 | 8.5E-05 | 1.3E-03 |  5.4  4.4E-02  OK|
 | E-Diss.K             | 1.00 | 7.9E-05 | 1.6E-03 |  7.2  1.9E-02  OK|
 +----------------------+------+---------+---------+------------------+
                   
 CFD Solver finished: Thu Dec  6 14:58:46 2018
 CFD Solver wall clock seconds: 6.2239E+01

 ======================================================================
              Termination and Interrupt Condition Summary
 ======================================================================
    
 CFD Solver: All target criteria reached
   (Equation residuals)

 ======================================================================
              Boundary Flow and Total Source Term Summary
 ======================================================================

 +--------------------------------------------------------------------+
 |                               U-Mom                                |
 +--------------------------------------------------------------------+
 Boundary         : Default Domain Default                 -2.5719E+02
 Boundary         : in1                                     7.3183E-05
 Boundary         : in2                                    -6.4710E-05
 Boundary         : out                                     2.3743E+02
                                                           -----------
 Domain Imbalance :                                        -1.9756E+01

 +--------------------------------------------------------------------+
 |                               V-Mom                                |
 +--------------------------------------------------------------------+
 Boundary         : Default Domain Default                 -7.1214E+04
 Boundary         : in1                                     1.3540E+05
 Boundary         : in2                                    -6.4316E+04
 Boundary         : out                                     1.2269E+02
                                                           -----------
 Domain Imbalance :                                        -1.0133E+01

 +--------------------------------------------------------------------+
 |                               W-Mom                                |
 +--------------------------------------------------------------------+
 Boundary         : Default Domain Default                 -1.2185E+04
 Boundary         : in1                                    -1.7829E-05
 Boundary         : in2                                    -7.3789E-06
 Boundary         : out                                     1.2209E+04
                                                           -----------
 Domain Imbalance :                                         2.4360E+01

 +--------------------------------------------------------------------+
 |                               P-Mass                               |
 +--------------------------------------------------------------------+
 Boundary         : in1                                     1.5000E+03
 Boundary         : in2                                     1.5000E+03
 Boundary         : out                                    -2.9999E+03
                                                           -----------
 Domain Imbalance :                                         8.4961E-02

 +--------------------------------------------------------------------+
 |                              H-Energy                              |
 +--------------------------------------------------------------------+
 Boundary         : in1                                     1.0569E+08
 Boundary         : in2                                    -8.2484E+07
 Boundary         : out                                    -2.1500E+07
                                                           -----------
 Domain Imbalance :                                         1.7082E+06


 +--------------------------------------------------------------------+
 |                     Normalised Imbalance Summary                   |
 +--------------------------------------------------------------------+
 |       Equation       |      Maximum Flow     |     Imbalance (%)   |
 +--------------------------------------------------------------------+
 | U-Mom                |       1.3540E+05      |       -0.0146       |
 | V-Mom                |       1.3540E+05      |       -0.0075       |
 | W-Mom                |       1.3540E+05      |        0.0180       |
 | P-Mass               |       2.9999E+03      |        0.0028       |
 +----------------------+-----------------------+---------------------+
 | H-Energy             |       1.0569E+08      |        1.6162       |
 +----------------------+-----------------------+---------------------+

 ======================================================================
                     Wall Force and Moment Summary
 ======================================================================
                                                                          
 Notes:
 1. Pressure integrals exclude the reference pressure.  To include
    it, set the expert parameter 'include pref in forces = t'.


 +--------------------------------------------------------------------+
 |                      Pressure Force On Walls                       |
 +--------------------------------------------------------------------+
                                    X-Comp.      Y-Comp.      Z-Comp.

 Domain Group: Default Domain

 Default Domain Default           2.4281E+02   7.1322E+04   1.2207E+04
                                  -----------  -----------  -----------
 Domain Group Totals :            2.4281E+02   7.1322E+04   1.2207E+04


 +--------------------------------------------------------------------+
 |                       Viscous Force On Walls                       |
 +--------------------------------------------------------------------+
                                    X-Comp.      Y-Comp.      Z-Comp.

 Domain Group: Default Domain

 Default Domain Default           1.4345E+01  -1.0746E+02  -2.4641E+01
                                  -----------  -----------  -----------
 Domain Group Totals :            1.4345E+01  -1.0746E+02  -2.4641E+01


 +--------------------------------------------------------------------+
 |                      Pressure Moment On Walls                      |
 +--------------------------------------------------------------------+
                                    X-Comp.      Y-Comp.      Z-Comp.

 Domain Group: Default Domain

 Default Domain Default          -7.1447E+04  -5.8953E+02  -2.1953E+05
                                  -----------  -----------  -----------
 Domain Group Totals :           -7.1447E+04  -5.8953E+02  -2.1953E+05


 +--------------------------------------------------------------------+
 |                       Viscous Moment On Walls                      |
 +--------------------------------------------------------------------+
                                    X-Comp.      Y-Comp.      Z-Comp.

 Domain Group: Default Domain

 Default Domain Default           6.7001E+01   2.3726E+00  -6.1500E+03
                                  -----------  -----------  -----------
 Domain Group Totals :            6.7001E+01   2.3726E+00  -6.1500E+03


 +--------------------------------------------------------------------+
 |                   Locations of Maximum Residuals                   |
 +--------------------------------------------------------------------+
 |       Equation       |      Domain Name      |     Node Number     |
 +--------------------------------------------------------------------+
 | U-Mom                | Default Domain        |          21140      |
 | V-Mom                | Default Domain        |          26480      |
 | W-Mom                | Default Domain        |          26592      |
 | P-Mass               | Default Domain        |          26783      |
 +----------------------+-----------------------+---------------------+
 | H-Energy             | Default Domain        |          27013      |
 +----------------------+-----------------------+---------------------+
 | K-TurbKE             | Default Domain        |          21158      |
 | E-Diss.K             | Default Domain        |          28336      |
 +----------------------+-----------------------+---------------------+

 ======================================================================
 |                     False Transient Information                    |
 +--------------------------------------------------------------------+
 |       Equation       |         Type          | Elapsed Pseudo-Time |
 +--------------------------------------------------------------------+
 | U-Mom                | Auto Timescale        |     1.03528E+01     |
 | V-Mom                | Auto Timescale        |     1.03528E+01     |
 | W-Mom                | Auto Timescale        |     1.03528E+01     |
 +----------------------+-----------------------+---------------------+
 | H-Energy             | Auto Timescale        |     1.03528E+01     |
 +----------------------+-----------------------+---------------------+
 | K-TurbKE             | Auto Timescale        |     1.03528E+01     |
 | E-Diss.K             | Auto Timescale        |     1.03528E+01     |
 +----------------------+-----------------------+---------------------+

 +--------------------------------------------------------------------+
 |                     Average Scale Information                      |
 +--------------------------------------------------------------------+

 Domain Name : Default Domain
     Global Length                                         = 3.2734E+00
     Minimum Extent                                        = 4.0000E+00
     Maximum Extent                                        = 6.0000E+00
     Density                                               = 9.9700E+02
     Dynamic Viscosity                                     = 8.8990E-04
     Velocity                                              = 5.6431E+00
     Advection Time                                        = 5.8007E-01
     Reynolds Number                                       = 2.0695E+07
     Thermal Conductivity                                  = 6.0690E-01
     Specific Heat Capacity at Constant Pressure           = 4.1817E+03
     Prandtl Number                                        = 6.1316E+00
     Temperature Range                                     = 3.0028E+01

 +--------------------------------------------------------------------+
 |                     Variable Range Information                     |
 +--------------------------------------------------------------------+

 Domain Name : Default Domain
 +--------------------------------------------------------------------+
 |      Variable Name                         |    min    |    max    |
 +--------------------------------------------------------------------+
 | Density                                    |  9.97E+02 |  9.97E+02 |
 | Specific Heat Capacity at Constant Pressure|  4.18E+03 |  4.18E+03 |
 | Dynamic Viscosity                          |  8.90E-04 |  8.90E-04 |
 | Thermal Conductivity                       |  6.07E-01 |  6.07E-01 |
 | Static Entropy                             | -1.89E+02 |  2.30E+02 |
 | Velocity u                                 | -7.05E+00 |  7.00E+00 |
 | Velocity v                                 | -7.26E+00 |  7.39E+00 |
 | Velocity w                                 | -5.67E+00 |  2.15E+00 |
 | Pressure                                   | -1.09E+04 |  8.09E+04 |
 | Turbulence Kinetic Energy                  |  2.53E-05 |  4.97E+00 |
 | Turbulence Eddy Dissipation                |  3.48E-05 |  2.76E+02 |
 | Eddy Viscosity                             |  1.38E-03 |  3.54E+02 |
 | Temperature                                |  2.85E+02 |  3.15E+02 |
 | Static Enthalpy                            | -5.50E+04 |  7.05E+04 |
 +--------------------------------------------------------------------+

 +--------------------------------------------------------------------+
 |               CPU Requirements of Numerical Solution               |
 +--------------------------------------------------------------------+

 Subsystem Name                  Discretization       Linear Solution
                                (secs.   %total)     (secs.   %total) 
 ----------------------------------------------------------------------
 Momentum and Mass              2.17E+01  31.3 %     6.71E+00   9.7 %
 Heat Transfer                  7.39E+00  10.7 %     2.46E+00   3.5 %
 TurbKE and Diss.K              1.14E+01  16.5 %     5.29E+00   7.6 %
                                -------- -------     --------  ------
 Subsystem Summary              4.04E+01  58.4 %     1.45E+01  20.9 %

 File Reading                   1.22E-01    0.2 %
 Variable Updates               7.03E+00   10.2 %
 File Writing                   3.73E-01    0.5 %
 Miscellaneous                  6.77E+00    9.8 %
                                --------
 Total                          6.92E+01

 +--------------------------------------------------------------------+
 |                   Job Information at End of Run                    |
 +--------------------------------------------------------------------+

 Host computer:  ENPC-LAB137 (PID:6224)

 Job finished:   Thu Dec  6 14:58:49 2018

 Total wall clock time: 6.918E+01 seconds
             or: (          0:         0:         1:     9.180 )
                 (       Days:     Hours:   Minutes:   Seconds )

End of solution stage.

 +--------------------------------------------------------------------+
 | The results from this run of the ANSYS CFX Solver have been        |
 | written to                                                         |
 | H:/dos/CFD/CW/CFD-Static-Mixer/StaticMixerDX_pending/dp8_CFX_Solu- |
 | tion/Fluid Flow CFX_009.res                                        |
 +--------------------------------------------------------------------+


 +--------------------------------------------------------------------+
 | For CFX runs launched from Workbench, the final locations of       |
 | directories and files generated may differ from those shown.       |
 +--------------------------------------------------------------------+


This run of the ANSYS CFX Solver has finished.
