 This run of the CFX Release 19.1 Solver started at 14:21:37 on 05 Dec
 2018 by user jc2182 on ENPC-LAB137 (intel_xeon64.sse2_winnt) using the
 command:
 
  "C:\Program Files\ANSYS Inc\v191\CFX\bin\perllib\cfx5solve.pl" -batch
    -ccl runInput.ccl -fullname "Fluid Flow CFX_007"
 
 Release 19.1
 
  Point Releases and Patches installed:
  ANSYS, Inc. Products Release 19.1
  SpaceClaim Release 19.1
  Autodyn Release 19.1
  LS-DYNA Release 19.1
  CFD-Post only Release 19.1
  CFX (includes CFD-Post) Release 19.1
  Chemkin Release 19.1
  EnSight Release 19.1
  FENSAP-ICE Release 19.1
  Fluent (includes CFD-Post) Release 19.1
  Forte Release 19.1
  Polyflow (includes CFD-Post) Release 19.1
  TurboGrid Release 19.1
  ICEM CFD Release 19.1
  Customization Files for User Programmable Features Release 19.1
  Mechanical Products Release 19.1
  Icepak (includes CFD-Post) Release 19.1
  Remote Solve Manager Standalone Services Release 19.1
  ACIS Geometry Interface Release 19.1
  Catia, Version 5 Geometry Interface Release 19.1
  NX Geometry Interface Release 19.1
  Parasolid Geometry Interface  Release 19.1
  ANSYS, Inc. License Manager Release 19.1
 
 Setting up CFX Solver run ...
 
 
 +--------------------------------------------------------------------+
 |                                                                    |
 |                    CFX Command Language for Run                    |
 |                                                                    |
 +--------------------------------------------------------------------+
 
 LIBRARY:
   CEL:
     EXPRESSIONS:
       inMassFlow = 1500 [kg s^-1]
     END
   END
   MATERIAL: Water
     Material Description = Water (liquid)
     Material Group = Water Data, Constant Property Liquids
     Option = Pure Substance
     Thermodynamic State = Liquid
     PROPERTIES:
       Option = General Material
       EQUATION OF STATE:
         Density = 997.0 [kg m^-3]
         Molar Mass = 18.02 [kg kmol^-1]
         Option = Value
       END
       SPECIFIC HEAT CAPACITY:
         Option = Value
         Specific Heat Capacity = 4181.7 [J kg^-1 K^-1]
         Specific Heat Type = Constant Pressure
       END
       REFERENCE STATE:
         Option = Specified Point
         Reference Pressure = 1 [atm]
         Reference Specific Enthalpy = 0.0 [J/kg]
         Reference Specific Entropy = 0.0 [J/kg/K]
         Reference Temperature = 25 [C]
       END
       DYNAMIC VISCOSITY:
         Dynamic Viscosity = 8.899E-4 [kg m^-1 s^-1]
         Option = Value
       END
       THERMAL CONDUCTIVITY:
         Option = Value
         Thermal Conductivity = 0.6069 [W m^-1 K^-1]
       END
       ABSORPTION COEFFICIENT:
         Absorption Coefficient = 1.0 [m^-1]
         Option = Value
       END
       SCATTERING COEFFICIENT:
         Option = Value
         Scattering Coefficient = 0.0 [m^-1]
       END
       REFRACTIVE INDEX:
         Option = Value
         Refractive Index = 1.0 [m m^-1]
       END
       THERMAL EXPANSIVITY:
         Option = Value
         Thermal Expansivity = 2.57E-04 [K^-1]
       END
     END
   END
 END
 FLOW: Flow Analysis 1
   SOLUTION UNITS:
     Angle Units = [rad]
     Length Units = [m]
     Mass Units = [kg]
     Solid Angle Units = [sr]
     Temperature Units = [K]
     Time Units = [s]
   END
   ANALYSIS TYPE:
     Option = Steady State
     EXTERNAL SOLVER COUPLING:
       Option = None
     END
   END
   DOMAIN: Default Domain
     Coord Frame = Coord 0
     Domain Type = Fluid
     Location = B17
     BOUNDARY: Default Domain Default
       Boundary Type = WALL
       Location = F12.17,F14.17,F16.17,F19.17,F20.17,F21.17
       BOUNDARY CONDITIONS:
         HEAT TRANSFER:
           Option = Adiabatic
         END
         MASS AND MOMENTUM:
           Option = No Slip Wall
         END
         WALL ROUGHNESS:
           Option = Smooth Wall
         END
       END
     END
     BOUNDARY: in1
       Boundary Type = INLET
       Location = in1
       BOUNDARY CONDITIONS:
         FLOW DIRECTION:
           Option = Normal to Boundary Condition
         END
         FLOW REGIME:
           Option = Subsonic
         END
         HEAT TRANSFER:
           Option = Static Temperature
           Static Temperature = 315 [K]
         END
         MASS AND MOMENTUM:
           Mass Flow Rate = inMassFlow
           Mass Flow Rate Area = As Specified
           Option = Mass Flow Rate
         END
         TURBULENCE:
           Option = Medium Intensity and Eddy Viscosity Ratio
         END
       END
     END
     BOUNDARY: in2
       Boundary Type = INLET
       Location = in2
       BOUNDARY CONDITIONS:
         FLOW DIRECTION:
           Option = Normal to Boundary Condition
         END
         FLOW REGIME:
           Option = Subsonic
         END
         HEAT TRANSFER:
           Option = Static Temperature
           Static Temperature = 285 [K]
         END
         MASS AND MOMENTUM:
           Mass Flow Rate = inMassFlow
           Mass Flow Rate Area = As Specified
           Option = Mass Flow Rate
         END
         TURBULENCE:
           Option = Medium Intensity and Eddy Viscosity Ratio
         END
       END
     END
     BOUNDARY: out
       Boundary Type = OUTLET
       Location = out
       BOUNDARY CONDITIONS:
         FLOW REGIME:
           Option = Subsonic
         END
         MASS AND MOMENTUM:
           Option = Static Pressure
           Relative Pressure = 0 [Pa]
         END
       END
     END
     DOMAIN MODELS:
       BUOYANCY MODEL:
         Option = Non Buoyant
       END
       DOMAIN MOTION:
         Option = Stationary
       END
       MESH DEFORMATION:
         Option = None
       END
       REFERENCE PRESSURE:
         Reference Pressure = 1 [atm]
       END
     END
     FLUID DEFINITION: Fluid 1
       Material = Water
       Option = Material Library
       MORPHOLOGY:
         Option = Continuous Fluid
       END
     END
     FLUID MODELS:
       COMBUSTION MODEL:
         Option = None
       END
       HEAT TRANSFER MODEL:
         Option = Thermal Energy
       END
       THERMAL RADIATION MODEL:
         Option = None
       END
       TURBULENCE MODEL:
         Option = k epsilon
       END
       TURBULENT WALL FUNCTIONS:
         Option = Scalable
       END
     END
   END
   OUTPUT CONTROL:
     RESULTS:
       File Compression Level = Default
       Option = Standard
     END
   END
   SOLVER CONTROL:
     Turbulence Numerics = High Resolution
     ADVECTION SCHEME:
       Option = High Resolution
     END
     CONVERGENCE CONTROL:
       Length Scale Option = Conservative
       Maximum Number of Iterations = 100
       Minimum Number of Iterations = 5
       Timescale Control = Auto Timescale
       Timescale Factor = 1.0
     END
     CONVERGENCE CRITERIA:
       Residual Target = 1.E-4
       Residual Type = RMS
     END
     DYNAMIC MODEL CONTROL:
       Global Dynamic Model Control = On
     END
   END
 END
 COMMAND FILE:
   Version = 19.1
   Results Version = 19.1
 END
 PARAMETERIZATION:
   INPUT FIELD: inMassFlow
     Expression Name = inMassFlow
     Method = Expression
   END
 END
 SIMULATION CONTROL:
   EXECUTION CONTROL:
     EXECUTABLE SELECTION:
       Double Precision = No
       Large Problem = No
     END
     INTERPOLATOR STEP CONTROL:
       Runtime Priority = Standard
       MEMORY CONTROL:
         Memory Allocation Factor = 1.0
       END
     END
     PARALLEL HOST LIBRARY:
       HOST DEFINITION: enpclab137
         Remote Host Name = ENPC-LAB137
         Host Architecture String = winnt-amd64
         Installation Root = C:\Program Files\ANSYS Inc\v%v\CFX
       END
     END
     PARTITIONER STEP CONTROL:
       Multidomain Option = Automatic
       Runtime Priority = Standard
       MEMORY CONTROL:
         Memory Allocation Factor = 1.0
       END
       PARTITION SMOOTHING:
         Maximum Partition Smoothing Sweeps = 100
         Option = Smooth
       END
       PARTITIONING TYPE:
         MeTiS Type = k-way
         Option = MeTiS
         Partition Size Rule = Automatic
       END
     END
     RUN DEFINITION:
       Run Mode = Full
       Solver Input File = Fluid Flow CFX.def
       Solver Results File = \
         H:/dos/CFD/CW/CFD-Static-Mixer/StaticMixerDX_pending/dp6_CFX_Solution\
         /Fluid Flow CFX_007.res
       INITIAL VALUES SPECIFICATION:
         INITIAL VALUES CONTROL:
           Use Mesh From = Solver Input File
           Continue History From = Workbench Initial Values
         END
         INITIAL VALUES: Workbench Initial Values
           Option = Results File
           File Name = Fluid Flow CFX_006.res
         END
       END
     END
     SOLVER STEP CONTROL:
       Runtime Priority = Standard
       MEMORY CONTROL:
         Memory Allocation Factor = 1.0
       END
       PARALLEL ENVIRONMENT:
         Number of Processes = 1
         Start Method = Serial
       END
     END
   END
 END
 
 
 +--------------------------------------------------------------------+
 |                                                                    |
 |                  Interpolation of Initial Values                   |
 |                                                                    |
 +--------------------------------------------------------------------+
 
 


 +--------------------------------------------------------------------+
 |                                                                    |
 |                    ANSYS(R) CFX(R) Interpolator                    |
 |                                                                    |
 | Release 19.1                                                       |
 | Build 19.1 2018-04-17T13:27:50.069000                              |
 | Tue Apr 17 15:02:11 GMTDT 2018                                     |
 |                                                                    |
 |                        Executable Attributes                       |
 |                                                                    |
 |           single-64bit-int32-archfort-optimised-std-lcomp          |
 |                                                                    |
 | (C) 1996-2018 ANSYS, Inc.                                          |
 |                                                                    |
 | All rights reserved. Unauthorized use, distribution or duplication |
 | is prohibited. This product is subject to U.S. laws governing      |
 | export and re-export. For full Legal Notice, see documentation.    |
 +--------------------------------------------------------------------+




 +--------------------------------------------------------------------+
 |                  Job Information at Start of Run                   |
 +--------------------------------------------------------------------+

 Run mode:       serial run

 Host computer:  ENPC-LAB137 (PID:12260)

 Job started:    Wed Dec  5 14:21:38 2018


 +--------------------------------------------------------------------+
 |        Memory Allocated for Run  (Actual usage may be less)        |
 +--------------------------------------------------------------------+

           | Real       | Integer    | Character | Logical  | Double
 ----------+------------+------------+-----------+----------+----------
 Mwords    |       1.49 |       1.51 |      0.20 |     0.01 |     0.08
 Mbytes    |       5.67 |       5.74 |      0.19 |     0.04 |     0.63
 ----------+------------+------------+-----------+----------+----------


 +--------------------------------------------------------------------+
 |                  Host Memory Information (Mbytes)                  |
 +--------------------------------------------------------------------+
 |          Host           |     System     |   Allocated    |   %    |
 +-------------------------+----------------+----------------+--------+
 | ENPC-LAB137             |     16240.97   |        12.27   |   0.08 |
 +-------------------------+----------------+----------------+--------+

 ======================================================================
               Interpolating Onto Domain "Default Domain"
 ======================================================================

 Total Number of Nodes in the Target Domain              =        27344
 Bounding Box Volume of the Target Mesh                  =  9.60000E+01


 Checking all source domains from the source file:
   Target mesh is different from domain "Default Domain".

 Searching for Candidate Source Domains:
   Domain "Default Domain"
     Number of Mapped Nodes                     =        24622 ( 90.0%)
     Bounding Box Overlap Volume                =  9.60000E+01 (100.0%)
   Setting Up Unmapped Nodes:
     Number of Unmapped Nodes                   =         2722 ( 10.0%)

 Start interpolation of variables: 
   Source Domain Name                                    Mapped Nodes
   Default Domain                                        24622 ( 90.0%)

 +--------------------------------------------------------------------+
 |                     Variable Range Information                     |
 +--------------------------------------------------------------------+
 +--------------------------------------------------------------------+
 |      Variable Name                         |    min    |    max    |
 +--------------------------------------------------------------------+
 | Thermal Conductivity                       |  6.07E-01 |  6.07E-01 |
 | Courant Number                             |  1.06E+00 |  3.62E+01 |
 | Density                                    |  9.97E+02 |  9.97E+02 |
 | Static Enthalpy                            | -5.50E+04 |  7.05E+04 |
 | Static Entropy                             | -1.89E+02 |  2.30E+02 |
 | Pressure                                   | -9.54E+03 |  7.50E+04 |
 | Specific Heat Capacity at Constant Pressure|  4.18E+03 |  4.18E+03 |
 | Specific Heat Capacity at Constant Volume  |  4.18E+03 |  4.18E+03 |
 | Turbulence Eddy Dissipation                |  3.64E-04 |  2.01E+02 |
 | Turbulence Eddy Frequency                  |  6.55E+00 |  2.05E+03 |
 | Temperature                                |  2.85E+02 |  3.15E+02 |
 | Turbulence Kinetic Energy                  |  1.19E-04 |  4.44E+00 |
 | Velocity                                   |  2.86E-01 |  7.51E+00 |
 | Dynamic Viscosity                          |  8.90E-04 |  8.90E-04 |
 | Eddy Viscosity                             |  1.49E-03 |  3.27E+02 |
 +--------------------------------------------------------------------+

 +--------------------------------------------------------------------+
 |                 CPU Requirements of Interpolation                  |
 +--------------------------------------------------------------------+

 Interpolation Step              Time    Percentage
                                (secs.   %total)
 ----------------------------------------------------------------------
 Tree Setup                     3.77E-01    9.9 %
 Interpolation                  1.48E+00   38.9 %
 Unmatched Nodes                8.50E-02    2.2 %
 Miscellaneous                  1.86E+00   48.9 %
                                --------
 Total                          3.79E+00

 +--------------------------------------------------------------------+
 |                   Job Information at End of Run                    |
 +--------------------------------------------------------------------+

 Host computer:  ENPC-LAB137 (PID:12260)

 Job finished:   Wed Dec  5 14:21:42 2018

 Total wall clock time: 3.799E+00 seconds
             or: (          0:         0:         0:     3.799 )
                 (       Days:     Hours:   Minutes:   Seconds )

 
 +--------------------------------------------------------------------+
 |                                                                    |
 |                               Solver                               |
 |                                                                    |
 +--------------------------------------------------------------------+
 



 +--------------------------------------------------------------------+
 |                                                                    |
 |                       ANSYS(R) CFX(R) Solver                       |
 |                                                                    |
 | Release 19.1                                                       |
 | Build 19.1 2018-04-17T13:27:50.069000                              |
 | Tue Apr 17 15:02:11 GMTDT 2018                                     |
 |                                                                    |
 |                        Executable Attributes                       |
 |                                                                    |
 |           single-64bit-int32-archfort-optimised-std-lcomp          |
 |                                                                    |
 | (C) 1996-2018 ANSYS, Inc.                                          |
 |                                                                    |
 | All rights reserved. Unauthorized use, distribution or duplication |
 | is prohibited. This product is subject to U.S. laws governing      |
 | export and re-export. For full Legal Notice, see documentation.    |
 +--------------------------------------------------------------------+




 +--------------------------------------------------------------------+
 |                  Job Information at Start of Run                   |
 +--------------------------------------------------------------------+

 Run mode:       serial run

 Host computer:  ENPC-LAB137 (PID:9284)

 Job started:    Wed Dec  5 14:21:45 2018

 +--------------------------------------------------------------------+
 |                        License Information                         |
 +--------------------------------------------------------------------+
 
 License Cap:    ANSYS CFX Solver (Max 128K Nodes)
 License ID:     VIGO_campus_bath_ac_uk-SYSTEM-1456-475458


 +--------------------------------------------------------------------+
 |        Memory Allocated for Run  (Actual usage may be less)        |
 +--------------------------------------------------------------------+

           | Real       | Integer    | Character | Logical  | Double
 ----------+------------+------------+-----------+----------+----------
 Mwords    |      17.40 |       4.80 |      7.26 |     0.12 |     0.89
 Mbytes    |      66.37 |      18.33 |      6.93 |     0.46 |     6.82
 ----------+------------+------------+-----------+----------+----------


 +--------------------------------------------------------------------+
 |                  Host Memory Information (Mbytes)                  |
 +--------------------------------------------------------------------+
 |          Host           |     System     |   Allocated    |   %    |
 +-------------------------+----------------+----------------+--------+
 | ENPC-LAB137             |     16240.97   |        98.91   |   0.61 |
 +-------------------------+----------------+----------------+--------+


 +--------------------------------------------------------------------+
 |                     ****** Notice ******                           |
 | The Wall Heat Transfer Coefficient written to the results file for |
 | any turbulent phase with heat transfer is based on the turbulent   |
 | wall function coefficient. It is consistent with the Wall Heat Flux|
 | the wall temperature, and the Wall Adjacent Temperature            |
 | (near-wall temperature).  If you would like it to be based on a    |
 | user-specified bulk temperature instead, please set the expert     |
 | parameter "tbulk for htc = <value>".                               |
 +--------------------------------------------------------------------+

 +--------------------------------------------------------------------+
 |                      Topology Simplification                       |
 +--------------------------------------------------------------------+

 +--------------------------------------------------------------------+
 |                       ****** Warning ******                        |
 |                                                                    |
 | Topology simplification is activated with the following            |
 | restrictions:                                                      |
 |                                                                    |
 | - Mesh regions referenced only within User Fortran and NOT         |
 |   in the command file will cause the solver to stop.               |
 | - The solver will stop during any "Edit Run in Progress" step      |
 |   if new 2D regions are referenced.                                |
 +--------------------------------------------------------------------+

 +--------------------------------------------------------------------+
 |                          Mesh Statistics                           |
 +--------------------------------------------------------------------+
 | Domain Name          | Orthog. Angle | Exp. Factor  | Aspect Ratio |
 +----------------------+---------------+--------------+--------------+
 |                      | Minimum [deg] |   Maximum    |    Maximum   |
 +----------------------+---------------+--------------+--------------+
 | Default Domain       |       30.6 ok |        15 ok |        29 OK |
 +----------------------+---------------+--------------+--------------+
 |                      |  %!  %ok  %OK | %!  %ok  %OK | %!  %ok  %OK |
 +----------------------+---------------+--------------+--------------+
 | Default Domain       |   0    1   99 |  0   <1  100 |  0    0  100 |
 +----------------------+---------------+--------------+--------------+

 Domain Name : Default Domain

     Total Number of Nodes                                =       27344

     Total Number of Elements                             =       98490
         Total Number of Tetrahedrons                     =       71905
         Total Number of Prisms                           =       26585

     Total Number of Faces                                =        7205

 +--------------------------------------------------------------------+
 |      Initial Conditions Supplied by Fields in the Input Files      |
 +--------------------------------------------------------------------+

 Domain Name : Default Domain
     Courant Number
     Eddy Viscosity
     Pressure
     Specific Heat Capacity at Constant Pressure
     Static Enthalpy
     Static Entropy
     Temperature
     Turbulence Eddy Dissipation
     Turbulence Eddy Frequency
     Turbulence Kinetic Energy
     Velocity

 +--------------------------------------------------------------------+
 |                     Average Scale Information                      |
 +--------------------------------------------------------------------+

 Domain Name : Default Domain
     Global Length                                         = 3.2201E+00
     Minimum Extent                                        = 4.0000E+00
     Maximum Extent                                        = 6.0000E+00
     Density                                               = 9.9700E+02
     Dynamic Viscosity                                     = 8.8990E-04
     Velocity                                              = 5.5485E+00
     Advection Time                                        = 5.8036E-01
     Reynolds Number                                       = 2.0017E+07
     Thermal Conductivity                                  = 6.0690E-01
     Specific Heat Capacity at Constant Pressure           = 4.1817E+03
     Prandtl Number                                        = 6.1316E+00
     Temperature Range                                     = 3.0017E+01

 +--------------------------------------------------------------------+
 |                Checking for Isolated Fluid Regions                 |
 +--------------------------------------------------------------------+
 
 No isolated fluid regions were found.

 +--------------------------------------------------------------------+
 |              The Equations Solved in This Calculation              |
 +--------------------------------------------------------------------+

 Subsystem : Momentum and Mass

   U-Mom
   V-Mom
   W-Mom
   P-Mass

 Subsystem : Heat Transfer

   H-Energy

 Subsystem : TurbKE and Diss.K

   K-TurbKE
   E-Diss.K
                   
 CFD Solver started: Wed Dec  5 14:21:48 2018


 +--------------------------------------------------------------------+
 |                       Convergence History                          |
 +--------------------------------------------------------------------+

 ======================================================================
 |                        Timescale Information                       |
 ----------------------------------------------------------------------
 |       Equation       |         Type          |      Timescale      |
 +----------------------+-----------------------+---------------------+
 | U-Mom                | Auto Timescale        |     1.80642E-01     |
 | V-Mom                | Auto Timescale        |     1.80642E-01     |
 | W-Mom                | Auto Timescale        |     1.80642E-01     |
 +----------------------+-----------------------+---------------------+
 | H-Energy             | Auto Timescale        |     1.80642E-01     |
 +----------------------+-----------------------+---------------------+
 | K-TurbKE             | Auto Timescale        |     1.80642E-01     |
 | E-Diss.K             | Auto Timescale        |     1.80642E-01     |
 +----------------------+-----------------------+---------------------+

 ======================================================================
 OUTER LOOP ITERATION =  328 (    1) CPU SECONDS = 2.110E+02 (3.582E+00)
 ----------------------------------------------------------------------
 |       Equation       | Rate | RMS Res | Max Res |  Linear Solution |
 +----------------------+------+---------+---------+------------------+
 | U-Mom                | 0.00 | 3.1E-03 | 3.7E-02 |       8.6E-02  OK|
 | V-Mom                | 0.00 | 3.0E-03 | 4.6E-02 |       8.9E-02  OK|
 | W-Mom                | 0.00 | 1.7E-03 | 2.5E-02 |       8.3E-02  OK|
 | P-Mass               | 0.00 | 1.4E-03 | 3.0E-02 |  5.2  6.5E-02  OK|
 +----------------------+------+---------+---------+------------------+
 | H-Energy             | 0.00 | 5.4E-03 | 9.2E-02 |  5.4  2.7E-02  OK|
 +----------------------+------+---------+---------+------------------+
 | K-TurbKE             | 0.00 | 5.0E-03 | 5.7E-02 |  5.4  4.1E-02  OK|
 | E-Diss.K             | 0.00 | 3.1E-02 | 9.3E-01 |  7.2  3.9E-03  OK|
 +----------------------+------+---------+---------+------------------+

 ======================================================================
 OUTER LOOP ITERATION =  329 (    2) CPU SECONDS = 2.122E+02 (4.687E+00)
 ----------------------------------------------------------------------
 |       Equation       | Rate | RMS Res | Max Res |  Linear Solution |
 +----------------------+------+---------+---------+------------------+
 | U-Mom                | 0.55 | 1.7E-03 | 3.2E-02 |       7.5E-02  OK|
 | V-Mom                | 0.52 | 1.5E-03 | 1.9E-02 |       7.5E-02  OK|
 | W-Mom                | 0.51 | 8.6E-04 | 1.1E-02 |       9.0E-02  OK|
 | P-Mass               | 0.34 | 4.8E-04 | 9.8E-03 |  9.4  3.6E-02  OK|
 +----------------------+------+---------+---------+------------------+
 | H-Energy             | 0.29 | 1.6E-03 | 4.6E-02 |  5.4  5.5E-02  OK|
 +----------------------+------+---------+---------+------------------+
 | K-TurbKE             | 3.54 | 1.8E-02 | 2.0E-01 |  5.4  2.1E-02  OK|
 | E-Diss.K             | 1.77 | 5.5E-02 | 1.6E+00 |  7.3  1.7E-03  OK|
 +----------------------+------+---------+---------+------------------+

 ======================================================================
 OUTER LOOP ITERATION =  330 (    3) CPU SECONDS = 2.132E+02 (5.705E+00)
 ----------------------------------------------------------------------
 |       Equation       | Rate | RMS Res | Max Res |  Linear Solution |
 +----------------------+------+---------+---------+------------------+
 | U-Mom                | 0.71 | 1.2E-03 | 3.2E-02 |       7.5E-02  OK|
 | V-Mom                | 0.57 | 8.7E-04 | 1.9E-02 |       8.0E-02  OK|
 | W-Mom                | 0.60 | 5.2E-04 | 1.4E-02 |       9.4E-02  OK|
 | P-Mass               | 0.51 | 2.5E-04 | 5.6E-03 |  9.4  4.3E-02  OK|
 +----------------------+------+---------+---------+------------------+
 | H-Energy             | 0.72 | 1.1E-03 | 3.6E-02 |  5.4  3.8E-02  OK|
 +----------------------+------+---------+---------+------------------+
 | K-TurbKE             | 0.50 | 8.8E-03 | 8.5E-02 |  5.4  3.5E-02  OK|
 | E-Diss.K             | 0.25 | 1.3E-02 | 3.8E-01 |  7.2  1.1E-02  OK|
 +----------------------+------+---------+---------+------------------+

 ======================================================================
 |                        Timescale Information                       |
 ----------------------------------------------------------------------
 |       Equation       |         Type          |      Timescale      |
 +----------------------+-----------------------+---------------------+
 | U-Mom                | Auto Timescale        |     1.88117E-01     |
 | V-Mom                | Auto Timescale        |     1.88117E-01     |
 | W-Mom                | Auto Timescale        |     1.88117E-01     |
 +----------------------+-----------------------+---------------------+
 | H-Energy             | Auto Timescale        |     1.88117E-01     |
 +----------------------+-----------------------+---------------------+
 | K-TurbKE             | Auto Timescale        |     1.88117E-01     |
 | E-Diss.K             | Auto Timescale        |     1.88117E-01     |
 +----------------------+-----------------------+---------------------+

 ======================================================================
 OUTER LOOP ITERATION =  331 (    4) CPU SECONDS = 2.142E+02 (6.692E+00)
 ----------------------------------------------------------------------
 |       Equation       | Rate | RMS Res | Max Res |  Linear Solution |
 +----------------------+------+---------+---------+------------------+
 | U-Mom                | 0.69 | 8.1E-04 | 2.9E-02 |       5.6E-02  OK|
 | V-Mom                | 0.60 | 5.3E-04 | 1.3E-02 |       6.3E-02  OK|
 | W-Mom                | 0.74 | 3.8E-04 | 1.3E-02 |       9.3E-02  OK|
 | P-Mass               | 0.61 | 1.5E-04 | 3.2E-03 |  9.4  4.5E-02  OK|
 +----------------------+------+---------+---------+------------------+
 | H-Energy             | 0.85 | 9.6E-04 | 2.5E-02 |  5.4  4.9E-02  OK|
 +----------------------+------+---------+---------+------------------+
 | K-TurbKE             | 0.74 | 6.5E-03 | 8.0E-02 |  5.4  3.8E-02  OK|
 | E-Diss.K             | 0.41 | 5.4E-03 | 2.0E-01 |  7.2  8.7E-03  OK|
 +----------------------+------+---------+---------+------------------+

 ======================================================================
 OUTER LOOP ITERATION =  332 (    5) CPU SECONDS = 2.151E+02 (7.673E+00)
 ----------------------------------------------------------------------
 |       Equation       | Rate | RMS Res | Max Res |  Linear Solution |
 +----------------------+------+---------+---------+------------------+
 | U-Mom                | 0.76 | 6.2E-04 | 2.3E-02 |       3.9E-02  OK|
 | V-Mom                | 0.87 | 4.6E-04 | 1.0E-02 |       4.5E-02  OK|
 | W-Mom                | 0.74 | 2.9E-04 | 9.1E-03 |       9.4E-02  OK|
 | P-Mass               | 0.62 | 9.3E-05 | 1.8E-03 |  9.4  4.6E-02  OK|
 +----------------------+------+---------+---------+------------------+
 | H-Energy             | 0.87 | 8.3E-04 | 2.5E-02 |  5.4  5.4E-02  OK|
 +----------------------+------+---------+---------+------------------+
 | K-TurbKE             | 0.33 | 2.1E-03 | 2.6E-02 |  5.4  2.7E-02  OK|
 | E-Diss.K             | 1.72 | 9.4E-03 | 2.5E-01 |  7.2  4.5E-03  OK|
 +----------------------+------+---------+---------+------------------+

 ======================================================================
 OUTER LOOP ITERATION =  333 (    6) CPU SECONDS = 2.161E+02 (8.656E+00)
 ----------------------------------------------------------------------
 |       Equation       | Rate | RMS Res | Max Res |  Linear Solution |
 +----------------------+------+---------+---------+------------------+
 | U-Mom                | 0.71 | 4.4E-04 | 1.6E-02 |       5.4E-02  OK|
 | V-Mom                | 0.80 | 3.7E-04 | 8.2E-03 |       6.0E-02  OK|
 | W-Mom                | 0.79 | 2.2E-04 | 5.8E-03 |       6.1E-02  OK|
 | P-Mass               | 0.63 | 5.8E-05 | 9.7E-04 |  9.4  5.0E-02  OK|
 +----------------------+------+---------+---------+------------------+
 | H-Energy             | 0.85 | 7.1E-04 | 1.5E-02 |  5.4  5.6E-02  OK|
 +----------------------+------+---------+---------+------------------+
 | K-TurbKE             | 0.67 | 1.4E-03 | 1.4E-02 |  5.4  2.8E-02  OK|
 | E-Diss.K             | 0.41 | 3.8E-03 | 6.0E-02 |  7.2  6.5E-03  OK|
 +----------------------+------+---------+---------+------------------+

 ======================================================================
 OUTER LOOP ITERATION =  334 (    7) CPU SECONDS = 2.171E+02 (9.655E+00)
 ----------------------------------------------------------------------
 |       Equation       | Rate | RMS Res | Max Res |  Linear Solution |
 +----------------------+------+---------+---------+------------------+
 | U-Mom                | 0.75 | 3.3E-04 | 1.0E-02 |       8.0E-02  OK|
 | V-Mom                | 0.91 | 3.3E-04 | 8.0E-03 |       8.4E-02  OK|
 | W-Mom                | 0.88 | 2.0E-04 | 4.7E-03 |       6.0E-02  OK|
 | P-Mass               | 0.79 | 4.6E-05 | 8.1E-04 |  9.4  7.0E-02  OK|
 +----------------------+------+---------+---------+------------------+
 | H-Energy             | 0.86 | 6.1E-04 | 1.1E-02 |  5.4  5.5E-02  OK|
 +----------------------+------+---------+---------+------------------+
 | K-TurbKE             | 0.68 | 9.7E-04 | 1.4E-02 |  5.4  4.0E-02  OK|
 | E-Diss.K             | 0.61 | 2.3E-03 | 7.3E-02 |  7.2  5.8E-03  OK|
 +----------------------+------+---------+---------+------------------+

 ======================================================================
 OUTER LOOP ITERATION =  335 (    8) CPU SECONDS = 2.181E+02 (1.068E+01)
 ----------------------------------------------------------------------
 |       Equation       | Rate | RMS Res | Max Res |  Linear Solution |
 +----------------------+------+---------+---------+------------------+
 | U-Mom                | 0.79 | 2.6E-04 | 6.1E-03 |       8.6E-02  OK|
 | V-Mom                | 0.93 | 3.1E-04 | 7.5E-03 |       8.8E-02  OK|
 | W-Mom                | 0.92 | 1.8E-04 | 4.5E-03 |       7.4E-02  OK|
 | P-Mass               | 1.03 | 4.7E-05 | 7.1E-04 |  9.4  8.0E-02  OK|
 +----------------------+------+---------+---------+------------------+
 | H-Energy             | 0.87 | 5.3E-04 | 9.0E-03 |  5.4  5.5E-02  OK|
 +----------------------+------+---------+---------+------------------+
 | K-TurbKE             | 0.61 | 5.9E-04 | 7.1E-03 |  5.4  5.6E-02  OK|
 | E-Diss.K             | 0.27 | 6.3E-04 | 1.6E-02 |  7.2  9.0E-03  OK|
 +----------------------+------+---------+---------+------------------+

 ======================================================================
 |                        Timescale Information                       |
 ----------------------------------------------------------------------
 |       Equation       |         Type          |      Timescale      |
 +----------------------+-----------------------+---------------------+
 | U-Mom                | Auto Timescale        |     1.89292E-01     |
 | V-Mom                | Auto Timescale        |     1.89292E-01     |
 | W-Mom                | Auto Timescale        |     1.89292E-01     |
 +----------------------+-----------------------+---------------------+
 | H-Energy             | Auto Timescale        |     1.89292E-01     |
 +----------------------+-----------------------+---------------------+
 | K-TurbKE             | Auto Timescale        |     1.89292E-01     |
 | E-Diss.K             | Auto Timescale        |     1.89292E-01     |
 +----------------------+-----------------------+---------------------+

 ======================================================================
 OUTER LOOP ITERATION =  336 (    9) CPU SECONDS = 2.191E+02 (1.168E+01)
 ----------------------------------------------------------------------
 |       Equation       | Rate | RMS Res | Max Res |  Linear Solution |
 +----------------------+------+---------+---------+------------------+
 | U-Mom                | 0.85 | 2.2E-04 | 3.6E-03 |       9.1E-02  OK|
 | V-Mom                | 0.93 | 2.9E-04 | 6.9E-03 |       9.1E-02  OK|
 | W-Mom                | 0.95 | 1.7E-04 | 4.2E-03 |       9.0E-02  OK|
 | P-Mass               | 1.00 | 4.7E-05 | 5.7E-04 |  9.4  9.2E-02  OK|
 +----------------------+------+---------+---------+------------------+
 | H-Energy             | 0.88 | 4.7E-04 | 8.1E-03 |  5.4  5.5E-02  OK|
 +----------------------+------+---------+---------+------------------+
 | K-TurbKE             | 0.84 | 5.0E-04 | 7.4E-03 |  5.4  6.6E-02  OK|
 | E-Diss.K             | 0.55 | 3.4E-04 | 1.3E-02 |  7.2  2.0E-02  OK|
 +----------------------+------+---------+---------+------------------+

 ======================================================================
 OUTER LOOP ITERATION =  337 (   10) CPU SECONDS = 2.201E+02 (1.267E+01)
 ----------------------------------------------------------------------
 |       Equation       | Rate | RMS Res | Max Res |  Linear Solution |
 +----------------------+------+---------+---------+------------------+
 | U-Mom                | 0.89 | 2.0E-04 | 3.3E-03 |       3.6E-02  OK|
 | V-Mom                | 0.93 | 2.7E-04 | 6.3E-03 |       3.5E-02  OK|
 | W-Mom                | 0.96 | 1.7E-04 | 3.8E-03 |       5.3E-02  OK|
 | P-Mass               | 0.99 | 4.6E-05 | 5.1E-04 | 13.5  3.8E-02  OK|
 +----------------------+------+---------+---------+------------------+
 | H-Energy             | 0.90 | 4.2E-04 | 7.7E-03 |  5.4  5.4E-02  OK|
 +----------------------+------+---------+---------+------------------+
 | K-TurbKE             | 0.96 | 4.8E-04 | 6.2E-03 |  5.4  6.4E-02  OK|
 | E-Diss.K             | 2.95 | 1.0E-03 | 3.1E-02 |  7.2  9.0E-03  OK|
 +----------------------+------+---------+---------+------------------+

 ======================================================================
 OUTER LOOP ITERATION =  338 (   11) CPU SECONDS = 2.212E+02 (1.377E+01)
 ----------------------------------------------------------------------
 |       Equation       | Rate | RMS Res | Max Res |  Linear Solution |
 +----------------------+------+---------+---------+------------------+
 | U-Mom                | 0.92 | 1.8E-04 | 3.7E-03 |       8.7E-02  OK|
 | V-Mom                | 0.93 | 2.5E-04 | 5.6E-03 |       8.4E-02  OK|
 | W-Mom                | 0.96 | 1.6E-04 | 3.5E-03 |       9.2E-02  OK|
 | P-Mass               | 1.04 | 4.8E-05 | 5.1E-04 |  9.4  9.7E-02  OK|
 +----------------------+------+---------+---------+------------------+
 | H-Energy             | 0.89 | 3.8E-04 | 5.4E-03 |  5.4  5.4E-02  OK|
 +----------------------+------+---------+---------+------------------+
 | K-TurbKE             | 0.95 | 4.6E-04 | 6.2E-03 |  5.4  6.1E-02  OK|
 | E-Diss.K             | 0.96 | 9.7E-04 | 2.5E-02 |  7.2  1.0E-02  OK|
 +----------------------+------+---------+---------+------------------+

 ======================================================================
 OUTER LOOP ITERATION =  339 (   12) CPU SECONDS = 2.223E+02 (1.486E+01)
 ----------------------------------------------------------------------
 |       Equation       | Rate | RMS Res | Max Res |  Linear Solution |
 +----------------------+------+---------+---------+------------------+
 | U-Mom                | 0.95 | 1.7E-04 | 4.1E-03 |       3.5E-02  OK|
 | V-Mom                | 0.94 | 2.3E-04 | 5.2E-03 |       3.3E-02  OK|
 | W-Mom                | 0.94 | 1.5E-04 | 3.2E-03 |       5.8E-02  OK|
 | P-Mass               | 0.87 | 4.2E-05 | 4.2E-04 | 13.5  4.1E-02  OK|
 +----------------------+------+---------+---------+------------------+
 | H-Energy             | 0.91 | 3.4E-04 | 6.0E-03 |  5.4  5.4E-02  OK|
 +----------------------+------+---------+---------+------------------+
 | K-TurbKE             | 0.97 | 4.4E-04 | 5.8E-03 |  5.4  5.8E-02  OK|
 | E-Diss.K             | 0.88 | 8.6E-04 | 2.2E-02 |  7.2  1.2E-02  OK|
 +----------------------+------+---------+---------+------------------+

 ======================================================================
 OUTER LOOP ITERATION =  340 (   13) CPU SECONDS = 2.234E+02 (1.598E+01)
 ----------------------------------------------------------------------
 |       Equation       | Rate | RMS Res | Max Res |  Linear Solution |
 +----------------------+------+---------+---------+------------------+
 | U-Mom                | 0.95 | 1.6E-04 | 4.4E-03 |       3.2E-02  OK|
 | V-Mom                | 0.93 | 2.2E-04 | 4.7E-03 |       3.0E-02  OK|
 | W-Mom                | 0.94 | 1.4E-04 | 2.9E-03 |       5.2E-02  OK|
 | P-Mass               | 0.99 | 4.1E-05 | 4.0E-04 | 13.5  3.7E-02  OK|
 +----------------------+------+---------+---------+------------------+
 | H-Energy             | 0.90 | 3.1E-04 | 4.2E-03 |  5.4  5.3E-02  OK|
 +----------------------+------+---------+---------+------------------+
 | K-TurbKE             | 1.00 | 4.4E-04 | 3.9E-03 |  5.4  5.6E-02  OK|
 | E-Diss.K             | 1.00 | 8.5E-04 | 2.1E-02 |  7.2  1.2E-02  OK|
 +----------------------+------+---------+---------+------------------+

 ======================================================================
 |                        Timescale Information                       |
 ----------------------------------------------------------------------
 |       Equation       |         Type          |      Timescale      |
 +----------------------+-----------------------+---------------------+
 | U-Mom                | Auto Timescale        |     1.86326E-01     |
 | V-Mom                | Auto Timescale        |     1.86326E-01     |
 | W-Mom                | Auto Timescale        |     1.86326E-01     |
 +----------------------+-----------------------+---------------------+
 | H-Energy             | Auto Timescale        |     1.86326E-01     |
 +----------------------+-----------------------+---------------------+
 | K-TurbKE             | Auto Timescale        |     1.86326E-01     |
 | E-Diss.K             | Auto Timescale        |     1.86326E-01     |
 +----------------------+-----------------------+---------------------+

 ======================================================================
 OUTER LOOP ITERATION =  341 (   14) CPU SECONDS = 2.248E+02 (1.733E+01)
 ----------------------------------------------------------------------
 |       Equation       | Rate | RMS Res | Max Res |  Linear Solution |
 +----------------------+------+---------+---------+------------------+
 | U-Mom                | 0.96 | 1.6E-04 | 4.8E-03 |       3.1E-02  OK|
 | V-Mom                | 0.94 | 2.0E-04 | 4.4E-03 |       2.9E-02  OK|
 | W-Mom                | 0.93 | 1.3E-04 | 2.8E-03 |       5.5E-02  OK|
 | P-Mass               | 0.92 | 3.8E-05 | 3.5E-04 | 13.5  3.7E-02  OK|
 +----------------------+------+---------+---------+------------------+
 | H-Energy             | 0.90 | 2.8E-04 | 3.6E-03 |  5.4  5.1E-02  OK|
 +----------------------+------+---------+---------+------------------+
 | K-TurbKE             | 1.00 | 4.4E-04 | 3.7E-03 |  5.4  5.3E-02  OK|
 | E-Diss.K             | 0.95 | 8.1E-04 | 1.9E-02 |  7.2  1.2E-02  OK|
 +----------------------+------+---------+---------+------------------+

 ======================================================================
 OUTER LOOP ITERATION =  342 (   15) CPU SECONDS = 2.262E+02 (1.873E+01)
 ----------------------------------------------------------------------
 |       Equation       | Rate | RMS Res | Max Res |  Linear Solution |
 +----------------------+------+---------+---------+------------------+
 | U-Mom                | 0.96 | 1.5E-04 | 5.1E-03 |       3.0E-02  OK|
 | V-Mom                | 0.93 | 1.9E-04 | 4.5E-03 |       2.9E-02  OK|
 | W-Mom                | 0.92 | 1.2E-04 | 2.8E-03 |       6.0E-02  OK|
 | P-Mass               | 0.93 | 3.5E-05 | 3.0E-04 | 13.5  3.8E-02  OK|
 +----------------------+------+---------+---------+------------------+
 | H-Energy             | 0.91 | 2.6E-04 | 3.1E-03 |  5.4  5.0E-02  OK|
 +----------------------+------+---------+---------+------------------+
 | K-TurbKE             | 0.99 | 4.4E-04 | 3.6E-03 |  5.4  5.2E-02  OK|
 | E-Diss.K             | 0.92 | 7.4E-04 | 1.7E-02 |  7.2  1.3E-02  OK|
 +----------------------+------+---------+---------+------------------+

 ======================================================================
 OUTER LOOP ITERATION =  343 (   16) CPU SECONDS = 2.273E+02 (1.981E+01)
 ----------------------------------------------------------------------
 |       Equation       | Rate | RMS Res | Max Res |  Linear Solution |
 +----------------------+------+---------+---------+------------------+
 | U-Mom                | 0.96 | 1.5E-04 | 5.2E-03 |       3.0E-02  OK|
 | V-Mom                | 0.93 | 1.8E-04 | 4.7E-03 |       2.9E-02  OK|
 | W-Mom                | 0.91 | 1.1E-04 | 2.8E-03 |       6.6E-02  OK|
 | P-Mass               | 0.93 | 3.3E-05 | 2.7E-04 | 13.5  3.8E-02  OK|
 +----------------------+------+---------+---------+------------------+
 | H-Energy             | 0.91 | 2.3E-04 | 2.8E-03 |  5.4  5.0E-02  OK|
 +----------------------+------+---------+---------+------------------+
 | K-TurbKE             | 0.99 | 4.3E-04 | 2.8E-03 |  5.4  5.1E-02  OK|
 | E-Diss.K             | 0.94 | 6.9E-04 | 1.5E-02 |  7.2  1.4E-02  OK|
 +----------------------+------+---------+---------+------------------+

 ======================================================================
 OUTER LOOP ITERATION =  344 (   17) CPU SECONDS = 2.283E+02 (2.086E+01)
 ----------------------------------------------------------------------
 |       Equation       | Rate | RMS Res | Max Res |  Linear Solution |
 +----------------------+------+---------+---------+------------------+
 | U-Mom                | 0.97 | 1.4E-04 | 6.1E-03 |       3.0E-02  OK|
 | V-Mom                | 0.94 | 1.7E-04 | 4.9E-03 |       2.9E-02  OK|
 | W-Mom                | 0.91 | 1.0E-04 | 2.8E-03 |       7.2E-02  OK|
 | P-Mass               | 0.94 | 3.1E-05 | 2.4E-04 | 13.5  3.9E-02  OK|
 +----------------------+------+---------+---------+------------------+
 | H-Energy             | 0.91 | 2.1E-04 | 2.7E-03 |  5.4  5.0E-02  OK|
 +----------------------+------+---------+---------+------------------+
 | K-TurbKE             | 0.99 | 4.3E-04 | 2.1E-03 |  5.4  5.1E-02  OK|
 | E-Diss.K             | 0.95 | 6.6E-04 | 1.4E-02 |  7.2  1.4E-02  OK|
 +----------------------+------+---------+---------+------------------+

 ======================================================================
 OUTER LOOP ITERATION =  345 (   18) CPU SECONDS = 2.294E+02 (2.190E+01)
 ----------------------------------------------------------------------
 |       Equation       | Rate | RMS Res | Max Res |  Linear Solution |
 +----------------------+------+---------+---------+------------------+
 | U-Mom                | 0.97 | 1.4E-04 | 6.7E-03 |       3.1E-02  OK|
 | V-Mom                | 0.94 | 1.6E-04 | 5.3E-03 |       3.0E-02  OK|
 | W-Mom                | 0.91 | 9.1E-05 | 2.7E-03 |       7.8E-02  OK|
 | P-Mass               | 0.94 | 2.9E-05 | 2.2E-04 | 13.5  4.0E-02  OK|
 +----------------------+------+---------+---------+------------------+
 | H-Energy             | 0.92 | 2.0E-04 | 2.5E-03 |  5.4  5.2E-02  OK|
 +----------------------+------+---------+---------+------------------+
 | K-TurbKE             | 0.98 | 4.2E-04 | 2.2E-03 |  5.4  5.1E-02  OK|
 | E-Diss.K             | 0.95 | 6.2E-04 | 1.3E-02 |  7.2  1.4E-02  OK|
 +----------------------+------+---------+---------+------------------+

 ======================================================================
 |                        Timescale Information                       |
 ----------------------------------------------------------------------
 |       Equation       |         Type          |      Timescale      |
 +----------------------+-----------------------+---------------------+
 | U-Mom                | Auto Timescale        |     1.82858E-01     |
 | V-Mom                | Auto Timescale        |     1.82858E-01     |
 | W-Mom                | Auto Timescale        |     1.82858E-01     |
 +----------------------+-----------------------+---------------------+
 | H-Energy             | Auto Timescale        |     1.82858E-01     |
 +----------------------+-----------------------+---------------------+
 | K-TurbKE             | Auto Timescale        |     1.82858E-01     |
 | E-Diss.K             | Auto Timescale        |     1.82858E-01     |
 +----------------------+-----------------------+---------------------+

 ======================================================================
 OUTER LOOP ITERATION =  346 (   19) CPU SECONDS = 2.304E+02 (2.294E+01)
 ----------------------------------------------------------------------
 |       Equation       | Rate | RMS Res | Max Res |  Linear Solution |
 +----------------------+------+---------+---------+------------------+
 | U-Mom                | 0.97 | 1.3E-04 | 6.9E-03 |       3.0E-02  OK|
 | V-Mom                | 0.94 | 1.5E-04 | 5.5E-03 |       3.0E-02  OK|
 | W-Mom                | 0.91 | 8.2E-05 | 2.6E-03 |       8.2E-02  OK|
 | P-Mass               | 0.94 | 2.7E-05 | 2.0E-04 | 13.5  4.0E-02  OK|
 +----------------------+------+---------+---------+------------------+
 | H-Energy             | 0.93 | 1.8E-04 | 2.3E-03 |  5.4  5.4E-02  OK|
 +----------------------+------+---------+---------+------------------+
 | K-TurbKE             | 0.98 | 4.1E-04 | 2.2E-03 |  5.4  5.0E-02  OK|
 | E-Diss.K             | 0.94 | 5.9E-04 | 1.2E-02 |  7.2  1.5E-02  OK|
 +----------------------+------+---------+---------+------------------+

 ======================================================================
 OUTER LOOP ITERATION =  347 (   20) CPU SECONDS = 2.314E+02 (2.397E+01)
 ----------------------------------------------------------------------
 |       Equation       | Rate | RMS Res | Max Res |  Linear Solution |
 +----------------------+------+---------+---------+------------------+
 | U-Mom                | 0.97 | 1.3E-04 | 7.0E-03 |       3.0E-02  OK|
 | V-Mom                | 0.95 | 1.4E-04 | 5.6E-03 |       3.0E-02  OK|
 | W-Mom                | 0.91 | 7.5E-05 | 2.5E-03 |       8.7E-02  OK|
 | P-Mass               | 0.94 | 2.6E-05 | 1.8E-04 | 13.5  4.1E-02  OK|
 +----------------------+------+---------+---------+------------------+
 | H-Energy             | 0.93 | 1.7E-04 | 2.2E-03 |  5.4  5.7E-02  OK|
 +----------------------+------+---------+---------+------------------+
 | K-TurbKE             | 0.97 | 4.0E-04 | 2.2E-03 |  5.4  4.9E-02  OK|
 | E-Diss.K             | 0.95 | 5.6E-04 | 1.1E-02 |  7.2  1.5E-02  OK|
 +----------------------+------+---------+---------+------------------+

 ======================================================================
 OUTER LOOP ITERATION =  348 (   21) CPU SECONDS = 2.325E+02 (2.502E+01)
 ----------------------------------------------------------------------
 |       Equation       | Rate | RMS Res | Max Res |  Linear Solution |
 +----------------------+------+---------+---------+------------------+
 | U-Mom                | 0.97 | 1.2E-04 | 7.1E-03 |       3.0E-02  OK|
 | V-Mom                | 0.95 | 1.3E-04 | 5.6E-03 |       3.0E-02  OK|
 | W-Mom                | 0.91 | 6.8E-05 | 2.4E-03 |       9.2E-02  OK|
 | P-Mass               | 0.94 | 2.4E-05 | 1.8E-04 | 13.5  4.3E-02  OK|
 +----------------------+------+---------+---------+------------------+
 | H-Energy             | 0.92 | 1.6E-04 | 1.9E-03 |  5.4  6.0E-02  OK|
 +----------------------+------+---------+---------+------------------+
 | K-TurbKE             | 0.97 | 3.9E-04 | 2.0E-03 |  5.4  4.9E-02  OK|
 | E-Diss.K             | 0.95 | 5.3E-04 | 1.0E-02 |  7.2  1.5E-02  OK|
 +----------------------+------+---------+---------+------------------+

 ======================================================================
 OUTER LOOP ITERATION =  349 (   22) CPU SECONDS = 2.335E+02 (2.608E+01)
 ----------------------------------------------------------------------
 |       Equation       | Rate | RMS Res | Max Res |  Linear Solution |
 +----------------------+------+---------+---------+------------------+
 | U-Mom                | 0.97 | 1.2E-04 | 7.0E-03 |       3.0E-02  OK|
 | V-Mom                | 0.96 | 1.3E-04 | 5.5E-03 |       3.1E-02  OK|
 | W-Mom                | 0.92 | 6.3E-05 | 2.4E-03 |       9.6E-02  OK|
 | P-Mass               | 0.95 | 2.3E-05 | 1.8E-04 | 13.5  4.4E-02  OK|
 +----------------------+------+---------+---------+------------------+
 | H-Energy             | 0.91 | 1.4E-04 | 1.8E-03 |  5.4  6.4E-02  OK|
 +----------------------+------+---------+---------+------------------+
 | K-TurbKE             | 0.97 | 3.8E-04 | 1.9E-03 |  5.4  4.9E-02  OK|
 | E-Diss.K             | 0.95 | 5.0E-04 | 9.5E-03 |  7.2  1.5E-02  OK|
 +----------------------+------+---------+---------+------------------+

 ======================================================================
 OUTER LOOP ITERATION =  350 (   23) CPU SECONDS = 2.346E+02 (2.713E+01)
 ----------------------------------------------------------------------
 |       Equation       | Rate | RMS Res | Max Res |  Linear Solution |
 +----------------------+------+---------+---------+------------------+
 | U-Mom                | 0.97 | 1.2E-04 | 6.9E-03 |       3.0E-02  OK|
 | V-Mom                | 0.96 | 1.2E-04 | 5.5E-03 |       3.1E-02  OK|
 | W-Mom                | 0.93 | 5.8E-05 | 2.4E-03 |       9.9E-02  OK|
 | P-Mass               | 0.95 | 2.2E-05 | 1.8E-04 | 13.5  4.5E-02  OK|
 +----------------------+------+---------+---------+------------------+
 | H-Energy             | 0.91 | 1.3E-04 | 1.5E-03 |  5.4  6.6E-02  OK|
 +----------------------+------+---------+---------+------------------+
 | K-TurbKE             | 0.96 | 3.6E-04 | 1.8E-03 |  5.4  4.9E-02  OK|
 | E-Diss.K             | 0.94 | 4.8E-04 | 8.8E-03 |  7.2  1.5E-02  OK|
 +----------------------+------+---------+---------+------------------+

 ======================================================================
 |                        Timescale Information                       |
 ----------------------------------------------------------------------
 |       Equation       |         Type          |      Timescale      |
 +----------------------+-----------------------+---------------------+
 | U-Mom                | Auto Timescale        |     1.79588E-01     |
 | V-Mom                | Auto Timescale        |     1.79588E-01     |
 | W-Mom                | Auto Timescale        |     1.79588E-01     |
 +----------------------+-----------------------+---------------------+
 | H-Energy             | Auto Timescale        |     1.79588E-01     |
 +----------------------+-----------------------+---------------------+
 | K-TurbKE             | Auto Timescale        |     1.79588E-01     |
 | E-Diss.K             | Auto Timescale        |     1.79588E-01     |
 +----------------------+-----------------------+---------------------+

 ======================================================================
 OUTER LOOP ITERATION =  351 (   24) CPU SECONDS = 2.356E+02 (2.818E+01)
 ----------------------------------------------------------------------
 |       Equation       | Rate | RMS Res | Max Res |  Linear Solution |
 +----------------------+------+---------+---------+------------------+
 | U-Mom                | 0.97 | 1.1E-04 | 6.7E-03 |       2.9E-02  OK|
 | V-Mom                | 0.96 | 1.2E-04 | 5.4E-03 |       3.0E-02  OK|
 | W-Mom                | 0.93 | 5.4E-05 | 2.4E-03 |       1.0E-01  ok|
 | P-Mass               | 0.95 | 2.1E-05 | 1.8E-04 | 13.5  4.5E-02  OK|
 +----------------------+------+---------+---------+------------------+
 | H-Energy             | 0.91 | 1.2E-04 | 1.5E-03 |  5.4  6.7E-02  OK|
 +----------------------+------+---------+---------+------------------+
 | K-TurbKE             | 0.95 | 3.4E-04 | 1.7E-03 |  5.4  4.8E-02  OK|
 | E-Diss.K             | 0.93 | 4.4E-04 | 8.1E-03 |  7.2  1.5E-02  OK|
 +----------------------+------+---------+---------+------------------+

 ======================================================================
 OUTER LOOP ITERATION =  352 (   25) CPU SECONDS = 2.367E+02 (2.927E+01)
 ----------------------------------------------------------------------
 |       Equation       | Rate | RMS Res | Max Res |  Linear Solution |
 +----------------------+------+---------+---------+------------------+
 | U-Mom                | 0.97 | 1.1E-04 | 6.6E-03 |       2.9E-02  OK|
 | V-Mom                | 0.96 | 1.1E-04 | 5.4E-03 |       3.0E-02  OK|
 | W-Mom                | 0.94 | 5.1E-05 | 2.4E-03 |       1.0E-01  ok|
 | P-Mass               | 0.95 | 2.0E-05 | 1.7E-04 | 13.5  4.6E-02  OK|
 +----------------------+------+---------+---------+------------------+
 | H-Energy             | 0.92 | 1.1E-04 | 1.4E-03 |  5.4  6.8E-02  OK|
 +----------------------+------+---------+---------+------------------+
 | K-TurbKE             | 0.95 | 3.3E-04 | 1.7E-03 |  5.4  4.8E-02  OK|
 | E-Diss.K             | 0.94 | 4.1E-04 | 7.6E-03 |  7.2  1.6E-02  OK|
 +----------------------+------+---------+---------+------------------+

 ======================================================================
 OUTER LOOP ITERATION =  353 (   26) CPU SECONDS = 2.379E+02 (3.039E+01)
 ----------------------------------------------------------------------
 |       Equation       | Rate | RMS Res | Max Res |  Linear Solution |
 +----------------------+------+---------+---------+------------------+
 | U-Mom                | 0.97 | 1.0E-04 | 6.4E-03 |       2.9E-02  OK|
 | V-Mom                | 0.96 | 1.1E-04 | 5.3E-03 |       3.0E-02  OK|
 | W-Mom                | 0.95 | 4.9E-05 | 2.4E-03 |       1.1E-01  ok|
 | P-Mass               | 0.95 | 1.9E-05 | 1.7E-04 | 13.5  4.7E-02  OK|
 +----------------------+------+---------+---------+------------------+
 | H-Energy             | 0.94 | 1.0E-04 | 1.4E-03 |  5.4  6.8E-02  OK|
 +----------------------+------+---------+---------+------------------+
 | K-TurbKE             | 0.95 | 3.1E-04 | 1.6E-03 |  5.4  4.8E-02  OK|
 | E-Diss.K             | 0.94 | 3.9E-04 | 7.0E-03 |  7.2  1.6E-02  OK|
 +----------------------+------+---------+---------+------------------+

 ======================================================================
 OUTER LOOP ITERATION =  354 (   27) CPU SECONDS = 2.391E+02 (3.160E+01)
 ----------------------------------------------------------------------
 |       Equation       | Rate | RMS Res | Max Res |  Linear Solution |
 +----------------------+------+---------+---------+------------------+
 | U-Mom                | 0.96 | 1.0E-04 | 6.0E-03 |       2.8E-02  OK|
 | V-Mom                | 0.96 | 1.0E-04 | 5.2E-03 |       3.0E-02  OK|
 | W-Mom                | 0.95 | 4.6E-05 | 2.3E-03 |       1.1E-01  ok|
 | P-Mass               | 0.96 | 1.8E-05 | 1.6E-04 | 13.5  4.8E-02  OK|
 +----------------------+------+---------+---------+------------------+
 | H-Energy             | 0.95 | 9.6E-05 | 1.3E-03 |  5.4  6.7E-02  OK|
 +----------------------+------+---------+---------+------------------+
 | K-TurbKE             | 0.94 | 2.9E-04 | 1.5E-03 |  5.4  4.8E-02  OK|
 | E-Diss.K             | 0.94 | 3.7E-04 | 6.5E-03 |  7.2  1.6E-02  OK|
 +----------------------+------+---------+---------+------------------+

 ======================================================================
 OUTER LOOP ITERATION =  355 (   28) CPU SECONDS = 2.402E+02 (3.269E+01)
 ----------------------------------------------------------------------
 |       Equation       | Rate | RMS Res | Max Res |  Linear Solution |
 +----------------------+------+---------+---------+------------------+
 | U-Mom                | 0.96 | 9.7E-05 | 5.6E-03 |       2.8E-02  OK|
 | V-Mom                | 0.96 | 1.0E-04 | 5.1E-03 |       3.0E-02  OK|
 | W-Mom                | 0.96 | 4.4E-05 | 2.3E-03 |       1.1E-01  ok|
 | P-Mass               | 0.97 | 1.7E-05 | 1.6E-04 | 13.5  4.8E-02  OK|
 +----------------------+------+---------+---------+------------------+
 | H-Energy             | 0.96 | 9.3E-05 | 1.3E-03 |  5.4  6.6E-02  OK|
 +----------------------+------+---------+---------+------------------+
 | K-TurbKE             | 0.94 | 2.8E-04 | 1.5E-03 |  5.4  4.8E-02  OK|
 | E-Diss.K             | 0.94 | 3.4E-04 | 6.0E-03 |  7.2  1.6E-02  OK|
 +----------------------+------+---------+---------+------------------+

 ======================================================================
 |                        Timescale Information                       |
 ----------------------------------------------------------------------
 |       Equation       |         Type          |      Timescale      |
 +----------------------+-----------------------+---------------------+
 | U-Mom                | Auto Timescale        |     1.76640E-01     |
 | V-Mom                | Auto Timescale        |     1.76640E-01     |
 | W-Mom                | Auto Timescale        |     1.76640E-01     |
 +----------------------+-----------------------+---------------------+
 | H-Energy             | Auto Timescale        |     1.76640E-01     |
 +----------------------+-----------------------+---------------------+
 | K-TurbKE             | Auto Timescale        |     1.76640E-01     |
 | E-Diss.K             | Auto Timescale        |     1.76640E-01     |
 +----------------------+-----------------------+---------------------+

 ======================================================================
 OUTER LOOP ITERATION =  356 (   29) CPU SECONDS = 2.413E+02 (3.380E+01)
 ----------------------------------------------------------------------
 |       Equation       | Rate | RMS Res | Max Res |  Linear Solution |
 +----------------------+------+---------+---------+------------------+
 | U-Mom                | 0.97 | 9.4E-05 | 5.4E-03 |       2.7E-02  OK|
 | V-Mom                | 0.96 | 9.6E-05 | 5.1E-03 |       3.0E-02  OK|
 | W-Mom                | 0.96 | 4.3E-05 | 2.2E-03 |       1.2E-01  ok|
 | P-Mass               | 0.97 | 1.7E-05 | 1.6E-04 | 13.5  4.8E-02  OK|
 +----------------------+------+---------+---------+------------------+
 | H-Energy             | 0.97 | 9.0E-05 | 1.4E-03 |  5.4  6.3E-02  OK|
 +----------------------+------+---------+---------+------------------+
 | K-TurbKE             | 0.94 | 2.6E-04 | 1.4E-03 |  5.4  4.7E-02  OK|
 | E-Diss.K             | 0.93 | 3.2E-04 | 5.6E-03 |  7.2  1.6E-02  OK|
 +----------------------+------+---------+---------+------------------+
                   
 CFD Solver finished: Wed Dec  5 14:22:20 2018
 CFD Solver wall clock seconds: 3.1418E+01

 ======================================================================
              Termination and Interrupt Condition Summary
 ======================================================================
    
 CFD Solver: All target criteria reached
   (Equation residuals)

 ======================================================================
              Boundary Flow and Total Source Term Summary
 ======================================================================

 +--------------------------------------------------------------------+
 |                               U-Mom                                |
 +--------------------------------------------------------------------+
 Boundary         : Default Domain Default                 -1.0076E+01
 Boundary         : in1                                     5.7353E-05
 Boundary         : in2                                    -6.5850E-05
 Boundary         : out                                     1.3185E+01
                                                           -----------
 Domain Imbalance :                                         3.1098E+00

 +--------------------------------------------------------------------+
 |                               V-Mom                                |
 +--------------------------------------------------------------------+
 Boundary         : Default Domain Default                  4.2835E+01
 Boundary         : in1                                     6.2083E+04
 Boundary         : in2                                    -6.2131E+04
 Boundary         : out                                     4.7860E+00
                                                           -----------
 Domain Imbalance :                                        -3.8591E-01

 +--------------------------------------------------------------------+
 |                               W-Mom                                |
 +--------------------------------------------------------------------+
 Boundary         : Default Domain Default                 -1.2149E+04
 Boundary         : in1                                    -1.6125E-05
 Boundary         : in2                                    -7.8559E-06
 Boundary         : out                                     1.2186E+04
                                                           -----------
 Domain Imbalance :                                         3.7190E+01

 +--------------------------------------------------------------------+
 |                               P-Mass                               |
 +--------------------------------------------------------------------+
 Boundary         : in1                                     1.5000E+03
 Boundary         : in2                                     1.5000E+03
 Boundary         : out                                    -2.9997E+03
                                                           -----------
 Domain Imbalance :                                         2.6489E-01

 +--------------------------------------------------------------------+
 |                              H-Energy                              |
 +--------------------------------------------------------------------+
 Boundary         : in1                                     1.0569E+08
 Boundary         : in2                                    -8.2484E+07
 Boundary         : out                                    -2.3234E+07
                                                           -----------
 Domain Imbalance :                                        -2.5600E+04


 +--------------------------------------------------------------------+
 |                     Normalised Imbalance Summary                   |
 +--------------------------------------------------------------------+
 |       Equation       |      Maximum Flow     |     Imbalance (%)   |
 +--------------------------------------------------------------------+
 | U-Mom                |       6.2131E+04      |        0.0050       |
 | V-Mom                |       6.2131E+04      |       -0.0006       |
 | W-Mom                |       6.2131E+04      |        0.0599       |
 | P-Mass               |       2.9997E+03      |        0.0088       |
 +----------------------+-----------------------+---------------------+
 | H-Energy             |       1.0569E+08      |       -0.0242       |
 +----------------------+-----------------------+---------------------+

 ======================================================================
                     Wall Force and Moment Summary
 ======================================================================
                                                                          
 Notes:
 1. Pressure integrals exclude the reference pressure.  To include
    it, set the expert parameter 'include pref in forces = t'.


 +--------------------------------------------------------------------+
 |                      Pressure Force On Walls                       |
 +--------------------------------------------------------------------+
                                    X-Comp.      Y-Comp.      Z-Comp.

 Domain Group: Default Domain

 Default Domain Default           8.1289E+00  -4.4840E+01   1.2239E+04
                                  -----------  -----------  -----------
 Domain Group Totals :            8.1289E+00  -4.4840E+01   1.2239E+04


 +--------------------------------------------------------------------+
 |                       Viscous Force On Walls                       |
 +--------------------------------------------------------------------+
                                    X-Comp.      Y-Comp.      Z-Comp.

 Domain Group: Default Domain

 Default Domain Default           2.1262E+00   2.0176E+00  -8.9825E+01
                                  -----------  -----------  -----------
 Domain Group Totals :            2.1262E+00   2.0176E+00  -8.9825E+01


 +--------------------------------------------------------------------+
 |                      Pressure Moment On Walls                      |
 +--------------------------------------------------------------------+
                                    X-Comp.      Y-Comp.      Z-Comp.

 Domain Group: Default Domain

 Default Domain Default           3.1722E+01   1.6969E+01  -1.0642E+05
                                  -----------  -----------  -----------
 Domain Group Totals :            3.1722E+01   1.6969E+01  -1.0642E+05


 +--------------------------------------------------------------------+
 |                       Viscous Moment On Walls                      |
 +--------------------------------------------------------------------+
                                    X-Comp.      Y-Comp.      Z-Comp.

 Domain Group: Default Domain

 Default Domain Default          -3.3230E+00   1.4178E+00  -5.8617E+03
                                  -----------  -----------  -----------
 Domain Group Totals :           -3.3230E+00   1.4178E+00  -5.8617E+03


 +--------------------------------------------------------------------+
 |                   Locations of Maximum Residuals                   |
 +--------------------------------------------------------------------+
 |       Equation       |      Domain Name      |     Node Number     |
 +--------------------------------------------------------------------+
 | U-Mom                | Default Domain        |          24779      |
 | V-Mom                | Default Domain        |          24779      |
 | W-Mom                | Default Domain        |          24797      |
 | P-Mass               | Default Domain        |          25893      |
 +----------------------+-----------------------+---------------------+
 | H-Energy             | Default Domain        |          18292      |
 +----------------------+-----------------------+---------------------+
 | K-TurbKE             | Default Domain        |          22361      |
 | E-Diss.K             | Default Domain        |          26363      |
 +----------------------+-----------------------+---------------------+

 ======================================================================
 |                     False Transient Information                    |
 +--------------------------------------------------------------------+
 |       Equation       |         Type          | Elapsed Pseudo-Time |
 +--------------------------------------------------------------------+
 | U-Mom                | Auto Timescale        |     5.34947E+00     |
 | V-Mom                | Auto Timescale        |     5.34947E+00     |
 | W-Mom                | Auto Timescale        |     5.34947E+00     |
 +----------------------+-----------------------+---------------------+
 | H-Energy             | Auto Timescale        |     5.34947E+00     |
 +----------------------+-----------------------+---------------------+
 | K-TurbKE             | Auto Timescale        |     5.34947E+00     |
 | E-Diss.K             | Auto Timescale        |     5.34947E+00     |
 +----------------------+-----------------------+---------------------+

 +--------------------------------------------------------------------+
 |                     Average Scale Information                      |
 +--------------------------------------------------------------------+

 Domain Name : Default Domain
     Global Length                                         = 3.2201E+00
     Minimum Extent                                        = 4.0000E+00
     Maximum Extent                                        = 6.0000E+00
     Density                                               = 9.9700E+02
     Dynamic Viscosity                                     = 8.8990E-04
     Velocity                                              = 5.6952E+00
     Advection Time                                        = 5.6541E-01
     Reynolds Number                                       = 2.0546E+07
     Thermal Conductivity                                  = 6.0690E-01
     Specific Heat Capacity at Constant Pressure           = 4.1817E+03
     Prandtl Number                                        = 6.1316E+00
     Temperature Range                                     = 3.0020E+01

 +--------------------------------------------------------------------+
 |                     Variable Range Information                     |
 +--------------------------------------------------------------------+

 Domain Name : Default Domain
 +--------------------------------------------------------------------+
 |      Variable Name                         |    min    |    max    |
 +--------------------------------------------------------------------+
 | Density                                    |  9.97E+02 |  9.97E+02 |
 | Specific Heat Capacity at Constant Pressure|  4.18E+03 |  4.18E+03 |
 | Dynamic Viscosity                          |  8.90E-04 |  8.90E-04 |
 | Thermal Conductivity                       |  6.07E-01 |  6.07E-01 |
 | Static Entropy                             | -1.89E+02 |  2.30E+02 |
 | Velocity u                                 | -6.68E+00 |  6.68E+00 |
 | Velocity v                                 | -7.03E+00 |  7.02E+00 |
 | Velocity w                                 | -5.46E+00 |  1.92E+00 |
 | Pressure                                   | -1.06E+04 |  7.83E+04 |
 | Turbulence Kinetic Energy                  |  1.01E-04 |  4.69E+00 |
 | Turbulence Eddy Dissipation                |  2.92E-04 |  2.72E+02 |
 | Eddy Viscosity                             |  1.36E-03 |  3.35E+02 |
 | Temperature                                |  2.85E+02 |  3.15E+02 |
 | Static Enthalpy                            | -5.50E+04 |  7.05E+04 |
 +--------------------------------------------------------------------+

 +--------------------------------------------------------------------+
 |               CPU Requirements of Numerical Solution               |
 +--------------------------------------------------------------------+

 Subsystem Name                  Discretization       Linear Solution
                                (secs.   %total)     (secs.   %total) 
 ----------------------------------------------------------------------
 Momentum and Mass              1.08E+01  28.6 %     3.53E+00   9.3 %
 Heat Transfer                  3.64E+00   9.6 %     1.22E+00   3.2 %
 TurbKE and Diss.K              5.74E+00  15.2 %     2.64E+00   7.0 %
                                -------- -------     --------  ------
 Subsystem Summary              2.02E+01  53.4 %     7.40E+00  19.5 %

 File Reading                   4.20E-02    0.1 %
 Variable Updates               3.62E+00    9.6 %
 File Writing                   3.81E-01    1.0 %
 Miscellaneous                  6.23E+00   16.4 %
                                --------
 Total                          3.79E+01

 +--------------------------------------------------------------------+
 |                   Job Information at End of Run                    |
 +--------------------------------------------------------------------+

 Host computer:  ENPC-LAB137 (PID:9284)

 Job finished:   Wed Dec  5 14:22:23 2018

 Total wall clock time: 3.786E+01 seconds
             or: (          0:         0:         0:    37.863 )
                 (       Days:     Hours:   Minutes:   Seconds )

End of solution stage.

 +--------------------------------------------------------------------+
 | The results from this run of the ANSYS CFX Solver have been        |
 | written to                                                         |
 | H:/dos/CFD/CW/CFD-Static-Mixer/StaticMixerDX_pending/dp6_CFX_Solu- |
 | tion/Fluid Flow CFX_007.res                                        |
 +--------------------------------------------------------------------+


 +--------------------------------------------------------------------+
 | For CFX runs launched from Workbench, the final locations of       |
 | directories and files generated may differ from those shown.       |
 +--------------------------------------------------------------------+


This run of the ANSYS CFX Solver has finished.
