 This run of the CFX Release 19.1 Solver started at 14:55:32 on 06 Dec
 2018 by user jc2182 on ENPC-LAB137 (intel_xeon64.sse2_winnt) using the
 command:
 
  "C:\Program Files\ANSYS Inc\v191\CFX\bin\perllib\cfx5solve.pl" -batch
    -ccl runInput.ccl -fullname "Fluid Flow CFX_009"
 
 Release 19.1
 
  Point Releases and Patches installed:
  ANSYS, Inc. Products Release 19.1
  SpaceClaim Release 19.1
  Autodyn Release 19.1
  LS-DYNA Release 19.1
  CFD-Post only Release 19.1
  CFX (includes CFD-Post) Release 19.1
  Chemkin Release 19.1
  EnSight Release 19.1
  FENSAP-ICE Release 19.1
  Fluent (includes CFD-Post) Release 19.1
  Forte Release 19.1
  Polyflow (includes CFD-Post) Release 19.1
  TurboGrid Release 19.1
  ICEM CFD Release 19.1
  Customization Files for User Programmable Features Release 19.1
  Mechanical Products Release 19.1
  Icepak (includes CFD-Post) Release 19.1
  Remote Solve Manager Standalone Services Release 19.1
  ACIS Geometry Interface Release 19.1
  Catia, Version 5 Geometry Interface Release 19.1
  NX Geometry Interface Release 19.1
  Parasolid Geometry Interface  Release 19.1
  ANSYS, Inc. License Manager Release 19.1
 
 Setting up CFX Solver run ...
 
 
 +--------------------------------------------------------------------+
 |                                                                    |
 |                    CFX Command Language for Run                    |
 |                                                                    |
 +--------------------------------------------------------------------+
 
 LIBRARY:
   CEL:
     EXPRESSIONS:
       inMassFlow = 1500 [kg s^-1]
     END
   END
   MATERIAL: Water
     Material Description = Water (liquid)
     Material Group = Water Data, Constant Property Liquids
     Option = Pure Substance
     Thermodynamic State = Liquid
     PROPERTIES:
       Option = General Material
       EQUATION OF STATE:
         Density = 997.0 [kg m^-3]
         Molar Mass = 18.02 [kg kmol^-1]
         Option = Value
       END
       SPECIFIC HEAT CAPACITY:
         Option = Value
         Specific Heat Capacity = 4181.7 [J kg^-1 K^-1]
         Specific Heat Type = Constant Pressure
       END
       REFERENCE STATE:
         Option = Specified Point
         Reference Pressure = 1 [atm]
         Reference Specific Enthalpy = 0.0 [J/kg]
         Reference Specific Entropy = 0.0 [J/kg/K]
         Reference Temperature = 25 [C]
       END
       DYNAMIC VISCOSITY:
         Dynamic Viscosity = 8.899E-4 [kg m^-1 s^-1]
         Option = Value
       END
       THERMAL CONDUCTIVITY:
         Option = Value
         Thermal Conductivity = 0.6069 [W m^-1 K^-1]
       END
       ABSORPTION COEFFICIENT:
         Absorption Coefficient = 1.0 [m^-1]
         Option = Value
       END
       SCATTERING COEFFICIENT:
         Option = Value
         Scattering Coefficient = 0.0 [m^-1]
       END
       REFRACTIVE INDEX:
         Option = Value
         Refractive Index = 1.0 [m m^-1]
       END
       THERMAL EXPANSIVITY:
         Option = Value
         Thermal Expansivity = 2.57E-04 [K^-1]
       END
     END
   END
 END
 FLOW: Flow Analysis 1
   SOLUTION UNITS:
     Angle Units = [rad]
     Length Units = [m]
     Mass Units = [kg]
     Solid Angle Units = [sr]
     Temperature Units = [K]
     Time Units = [s]
   END
   ANALYSIS TYPE:
     Option = Steady State
     EXTERNAL SOLVER COUPLING:
       Option = None
     END
   END
   DOMAIN: Default Domain
     Coord Frame = Coord 0
     Domain Type = Fluid
     Location = B17
     BOUNDARY: Default Domain Default
       Boundary Type = WALL
       Location = F12.17,F14.17,F16.17,F19.17,F20.17,F21.17
       BOUNDARY CONDITIONS:
         HEAT TRANSFER:
           Option = Adiabatic
         END
         MASS AND MOMENTUM:
           Option = No Slip Wall
         END
         WALL ROUGHNESS:
           Option = Smooth Wall
         END
       END
     END
     BOUNDARY: in1
       Boundary Type = INLET
       Location = in1
       BOUNDARY CONDITIONS:
         FLOW DIRECTION:
           Option = Normal to Boundary Condition
         END
         FLOW REGIME:
           Option = Subsonic
         END
         HEAT TRANSFER:
           Option = Static Temperature
           Static Temperature = 315 [K]
         END
         MASS AND MOMENTUM:
           Mass Flow Rate = inMassFlow
           Mass Flow Rate Area = As Specified
           Option = Mass Flow Rate
         END
         TURBULENCE:
           Option = Medium Intensity and Eddy Viscosity Ratio
         END
       END
     END
     BOUNDARY: in2
       Boundary Type = INLET
       Location = in2
       BOUNDARY CONDITIONS:
         FLOW DIRECTION:
           Option = Normal to Boundary Condition
         END
         FLOW REGIME:
           Option = Subsonic
         END
         HEAT TRANSFER:
           Option = Static Temperature
           Static Temperature = 285 [K]
         END
         MASS AND MOMENTUM:
           Mass Flow Rate = inMassFlow
           Mass Flow Rate Area = As Specified
           Option = Mass Flow Rate
         END
         TURBULENCE:
           Option = Medium Intensity and Eddy Viscosity Ratio
         END
       END
     END
     BOUNDARY: out
       Boundary Type = OUTLET
       Location = out
       BOUNDARY CONDITIONS:
         FLOW REGIME:
           Option = Subsonic
         END
         MASS AND MOMENTUM:
           Option = Static Pressure
           Relative Pressure = 0 [Pa]
         END
       END
     END
     DOMAIN MODELS:
       BUOYANCY MODEL:
         Option = Non Buoyant
       END
       DOMAIN MOTION:
         Option = Stationary
       END
       MESH DEFORMATION:
         Option = None
       END
       REFERENCE PRESSURE:
         Reference Pressure = 1 [atm]
       END
     END
     FLUID DEFINITION: Fluid 1
       Material = Water
       Option = Material Library
       MORPHOLOGY:
         Option = Continuous Fluid
       END
     END
     FLUID MODELS:
       COMBUSTION MODEL:
         Option = None
       END
       HEAT TRANSFER MODEL:
         Option = Thermal Energy
       END
       THERMAL RADIATION MODEL:
         Option = None
       END
       TURBULENCE MODEL:
         Option = k epsilon
       END
       TURBULENT WALL FUNCTIONS:
         Option = Scalable
       END
     END
   END
   OUTPUT CONTROL:
     RESULTS:
       File Compression Level = Default
       Option = Standard
     END
   END
   SOLVER CONTROL:
     Turbulence Numerics = High Resolution
     ADVECTION SCHEME:
       Option = High Resolution
     END
     CONVERGENCE CONTROL:
       Length Scale Option = Conservative
       Maximum Number of Iterations = 100
       Minimum Number of Iterations = 5
       Timescale Control = Auto Timescale
       Timescale Factor = 1.0
     END
     CONVERGENCE CRITERIA:
       Residual Target = 1.E-4
       Residual Type = RMS
     END
     DYNAMIC MODEL CONTROL:
       Global Dynamic Model Control = On
     END
   END
 END
 COMMAND FILE:
   Version = 19.1
   Results Version = 19.1
 END
 PARAMETERIZATION:
   INPUT FIELD: inMassFlow
     Expression Name = inMassFlow
     Method = Expression
   END
 END
 SIMULATION CONTROL:
   EXECUTION CONTROL:
     EXECUTABLE SELECTION:
       Double Precision = No
       Large Problem = No
     END
     INTERPOLATOR STEP CONTROL:
       Runtime Priority = Standard
       MEMORY CONTROL:
         Memory Allocation Factor = 1.0
       END
     END
     PARALLEL HOST LIBRARY:
       HOST DEFINITION: enpclab137
         Remote Host Name = ENPC-LAB137
         Host Architecture String = winnt-amd64
         Installation Root = C:\Program Files\ANSYS Inc\v%v\CFX
       END
     END
     PARTITIONER STEP CONTROL:
       Multidomain Option = Automatic
       Runtime Priority = Standard
       MEMORY CONTROL:
         Memory Allocation Factor = 1.0
       END
       PARTITION SMOOTHING:
         Maximum Partition Smoothing Sweeps = 100
         Option = Smooth
       END
       PARTITIONING TYPE:
         MeTiS Type = k-way
         Option = MeTiS
         Partition Size Rule = Automatic
       END
     END
     RUN DEFINITION:
       Run Mode = Full
       Solver Input File = Fluid Flow CFX.def
       Solver Results File = \
         H:/dos/CFD/CW/CFD-Static-Mixer/StaticMixerDX_pending/dp7_CFX_Solution\
         /Fluid Flow CFX_009.res
       INITIAL VALUES SPECIFICATION:
         INITIAL VALUES CONTROL:
           Use Mesh From = Solver Input File
           Continue History From = Workbench Initial Values
         END
         INITIAL VALUES: Workbench Initial Values
           Option = Results File
           File Name = Fluid Flow CFX_008.res
         END
       END
     END
     SOLVER STEP CONTROL:
       Runtime Priority = Standard
       MEMORY CONTROL:
         Memory Allocation Factor = 1.0
       END
       PARALLEL ENVIRONMENT:
         Number of Processes = 1
         Start Method = Serial
       END
     END
   END
 END
 
 
 +--------------------------------------------------------------------+
 |                                                                    |
 |                  Interpolation of Initial Values                   |
 |                                                                    |
 +--------------------------------------------------------------------+
 
 


 +--------------------------------------------------------------------+
 |                                                                    |
 |                    ANSYS(R) CFX(R) Interpolator                    |
 |                                                                    |
 | Release 19.1                                                       |
 | Build 19.1 2018-04-17T13:27:50.069000                              |
 | Tue Apr 17 15:02:11 GMTDT 2018                                     |
 |                                                                    |
 |                        Executable Attributes                       |
 |                                                                    |
 |           single-64bit-int32-archfort-optimised-std-lcomp          |
 |                                                                    |
 | (C) 1996-2018 ANSYS, Inc.                                          |
 |                                                                    |
 | All rights reserved. Unauthorized use, distribution or duplication |
 | is prohibited. This product is subject to U.S. laws governing      |
 | export and re-export. For full Legal Notice, see documentation.    |
 +--------------------------------------------------------------------+




 +--------------------------------------------------------------------+
 |                  Job Information at Start of Run                   |
 +--------------------------------------------------------------------+

 Run mode:       serial run

 Host computer:  ENPC-LAB137 (PID:11804)

 Job started:    Thu Dec  6 14:55:33 2018


 +--------------------------------------------------------------------+
 |        Memory Allocated for Run  (Actual usage may be less)        |
 +--------------------------------------------------------------------+

           | Real       | Integer    | Character | Logical  | Double
 ----------+------------+------------+-----------+----------+----------
 Mwords    |       1.61 |       1.92 |      0.20 |     0.01 |     0.08
 Mbytes    |       6.15 |       7.34 |      0.19 |     0.04 |     0.63
 ----------+------------+------------+-----------+----------+----------


 +--------------------------------------------------------------------+
 |                  Host Memory Information (Mbytes)                  |
 +--------------------------------------------------------------------+
 |          Host           |     System     |   Allocated    |   %    |
 +-------------------------+----------------+----------------+--------+
 | ENPC-LAB137             |     16240.97   |        14.35   |   0.09 |
 +-------------------------+----------------+----------------+--------+

 ======================================================================
               Interpolating Onto Domain "Default Domain"
 ======================================================================

 Total Number of Nodes in the Target Domain              =        27294
 Bounding Box Volume of the Target Mesh                  =  1.03623E+02


 Checking all source domains from the source file:
   Target mesh is different from domain "Default Domain".

 Searching for Candidate Source Domains:
   Domain "Default Domain"
     Number of Mapped Nodes                     =        24476 ( 89.7%)
     Bounding Box Overlap Volume                =  8.00000E+01 ( 77.2%)
   Setting Up Unmapped Nodes:
     Number of Unmapped Nodes                   =         2818 ( 10.3%)

 Start interpolation of variables: 
   Source Domain Name                                    Mapped Nodes
   Default Domain                                        24476 ( 89.7%)

 +--------------------------------------------------------------------+
 |                     Variable Range Information                     |
 +--------------------------------------------------------------------+
 +--------------------------------------------------------------------+
 |      Variable Name                         |    min    |    max    |
 +--------------------------------------------------------------------+
 | Thermal Conductivity                       |  6.07E-01 |  6.07E-01 |
 | Courant Number                             |  9.53E-01 |  4.23E+01 |
 | Density                                    |  9.97E+02 |  9.97E+02 |
 | Static Enthalpy                            | -5.50E+04 |  7.05E+04 |
 | Static Entropy                             | -1.89E+02 |  2.30E+02 |
 | Pressure                                   | -1.04E+04 |  7.99E+04 |
 | Specific Heat Capacity at Constant Pressure|  4.18E+03 |  4.18E+03 |
 | Specific Heat Capacity at Constant Volume  |  4.18E+03 |  4.18E+03 |
 | Turbulence Eddy Dissipation                |  3.26E-04 |  2.79E+02 |
 | Turbulence Eddy Frequency                  |  6.88E+00 |  2.84E+03 |
 | Temperature                                |  2.85E+02 |  3.15E+02 |
 | Turbulence Kinetic Energy                  |  1.05E-04 |  4.76E+00 |
 | Velocity                                   |  2.38E-01 |  7.76E+00 |
 | Dynamic Viscosity                          |  8.90E-04 |  8.90E-04 |
 | Eddy Viscosity                             |  1.54E-03 |  3.39E+02 |
 +--------------------------------------------------------------------+

 +--------------------------------------------------------------------+
 |                 CPU Requirements of Interpolation                  |
 +--------------------------------------------------------------------+

 Interpolation Step              Time    Percentage
                                (secs.   %total)
 ----------------------------------------------------------------------
 Tree Setup                     3.54E-01    9.8 %
 Interpolation                  1.32E+00   36.6 %
 Unmatched Nodes                7.40E-02    2.1 %
 Miscellaneous                  1.86E+00   51.5 %
                                --------
 Total                          3.60E+00

 +--------------------------------------------------------------------+
 |                   Job Information at End of Run                    |
 +--------------------------------------------------------------------+

 Host computer:  ENPC-LAB137 (PID:11804)

 Job finished:   Thu Dec  6 14:55:37 2018

 Total wall clock time: 3.610E+00 seconds
             or: (          0:         0:         0:     3.610 )
                 (       Days:     Hours:   Minutes:   Seconds )

 
 +--------------------------------------------------------------------+
 |                                                                    |
 |                               Solver                               |
 |                                                                    |
 +--------------------------------------------------------------------+
 



 +--------------------------------------------------------------------+
 |                                                                    |
 |                       ANSYS(R) CFX(R) Solver                       |
 |                                                                    |
 | Release 19.1                                                       |
 | Build 19.1 2018-04-17T13:27:50.069000                              |
 | Tue Apr 17 15:02:11 GMTDT 2018                                     |
 |                                                                    |
 |                        Executable Attributes                       |
 |                                                                    |
 |           single-64bit-int32-archfort-optimised-std-lcomp          |
 |                                                                    |
 | (C) 1996-2018 ANSYS, Inc.                                          |
 |                                                                    |
 | All rights reserved. Unauthorized use, distribution or duplication |
 | is prohibited. This product is subject to U.S. laws governing      |
 | export and re-export. For full Legal Notice, see documentation.    |
 +--------------------------------------------------------------------+




 +--------------------------------------------------------------------+
 |                  Job Information at Start of Run                   |
 +--------------------------------------------------------------------+

 Run mode:       serial run

 Host computer:  ENPC-LAB137 (PID:10300)

 Job started:    Thu Dec  6 14:55:40 2018

 +--------------------------------------------------------------------+
 |                        License Information                         |
 +--------------------------------------------------------------------+
 
 License Cap:    ANSYS CFX Solver (Max 128K Nodes)
 License ID:     VIGO_campus_bath_ac_uk-SYSTEM-1456-894502


 +--------------------------------------------------------------------+
 |        Memory Allocated for Run  (Actual usage may be less)        |
 +--------------------------------------------------------------------+

           | Real       | Integer    | Character | Logical  | Double
 ----------+------------+------------+-----------+----------+----------
 Mwords    |      17.39 |       4.80 |      7.26 |     0.12 |     0.89
 Mbytes    |      66.34 |      18.31 |      6.93 |     0.46 |     6.82
 ----------+------------+------------+-----------+----------+----------


 +--------------------------------------------------------------------+
 |                  Host Memory Information (Mbytes)                  |
 +--------------------------------------------------------------------+
 |          Host           |     System     |   Allocated    |   %    |
 +-------------------------+----------------+----------------+--------+
 | ENPC-LAB137             |     16240.97   |        98.85   |   0.61 |
 +-------------------------+----------------+----------------+--------+


 +--------------------------------------------------------------------+
 |                     ****** Notice ******                           |
 | The Wall Heat Transfer Coefficient written to the results file for |
 | any turbulent phase with heat transfer is based on the turbulent   |
 | wall function coefficient. It is consistent with the Wall Heat Flux|
 | the wall temperature, and the Wall Adjacent Temperature            |
 | (near-wall temperature).  If you would like it to be based on a    |
 | user-specified bulk temperature instead, please set the expert     |
 | parameter "tbulk for htc = <value>".                               |
 +--------------------------------------------------------------------+

 +--------------------------------------------------------------------+
 |                      Topology Simplification                       |
 +--------------------------------------------------------------------+

 +--------------------------------------------------------------------+
 |                       ****** Warning ******                        |
 |                                                                    |
 | Topology simplification is activated with the following            |
 | restrictions:                                                      |
 |                                                                    |
 | - Mesh regions referenced only within User Fortran and NOT         |
 |   in the command file will cause the solver to stop.               |
 | - The solver will stop during any "Edit Run in Progress" step      |
 |   if new 2D regions are referenced.                                |
 +--------------------------------------------------------------------+

 +--------------------------------------------------------------------+
 |                          Mesh Statistics                           |
 +--------------------------------------------------------------------+
 | Domain Name          | Orthog. Angle | Exp. Factor  | Aspect Ratio |
 +----------------------+---------------+--------------+--------------+
 |                      | Minimum [deg] |   Maximum    |    Maximum   |
 +----------------------+---------------+--------------+--------------+
 | Default Domain       |       31.1 ok |        13 ok |        27 OK |
 +----------------------+---------------+--------------+--------------+
 |                      |  %!  %ok  %OK | %!  %ok  %OK | %!  %ok  %OK |
 +----------------------+---------------+--------------+--------------+
 | Default Domain       |   0    1   99 |  0   <1  100 |  0    0  100 |
 +----------------------+---------------+--------------+--------------+

 Domain Name : Default Domain

     Total Number of Nodes                                =       27294

     Total Number of Elements                             =       98397
         Total Number of Tetrahedrons                     =       71912
         Total Number of Prisms                           =       26485

     Total Number of Faces                                =        7185

 +--------------------------------------------------------------------+
 |      Initial Conditions Supplied by Fields in the Input Files      |
 +--------------------------------------------------------------------+

 Domain Name : Default Domain
     Courant Number
     Eddy Viscosity
     Pressure
     Specific Heat Capacity at Constant Pressure
     Static Enthalpy
     Static Entropy
     Temperature
     Turbulence Eddy Dissipation
     Turbulence Eddy Frequency
     Turbulence Kinetic Energy
     Velocity

 +--------------------------------------------------------------------+
 |                     Average Scale Information                      |
 +--------------------------------------------------------------------+

 Domain Name : Default Domain
     Global Length                                         = 3.2201E+00
     Minimum Extent                                        = 4.0000E+00
     Maximum Extent                                        = 5.1811E+00
     Density                                               = 9.9700E+02
     Dynamic Viscosity                                     = 8.8990E-04
     Velocity                                              = 5.8498E+00
     Advection Time                                        = 5.5047E-01
     Reynolds Number                                       = 2.1104E+07
     Thermal Conductivity                                  = 6.0690E-01
     Specific Heat Capacity at Constant Pressure           = 4.1817E+03
     Prandtl Number                                        = 6.1316E+00
     Temperature Range                                     = 3.0004E+01

 +--------------------------------------------------------------------+
 |                Checking for Isolated Fluid Regions                 |
 +--------------------------------------------------------------------+
 
 No isolated fluid regions were found.

 +--------------------------------------------------------------------+
 |              The Equations Solved in This Calculation              |
 +--------------------------------------------------------------------+

 Subsystem : Momentum and Mass

   U-Mom
   V-Mom
   W-Mom
   P-Mass

 Subsystem : Heat Transfer

   H-Energy

 Subsystem : TurbKE and Diss.K

   K-TurbKE
   E-Diss.K
                   
 CFD Solver started: Thu Dec  6 14:55:43 2018


 +--------------------------------------------------------------------+
 |                       Convergence History                          |
 +--------------------------------------------------------------------+

 ======================================================================
 |                        Timescale Information                       |
 ----------------------------------------------------------------------
 |       Equation       |         Type          |      Timescale      |
 +----------------------+-----------------------+---------------------+
 | U-Mom                | Auto Timescale        |     1.70163E-01     |
 | V-Mom                | Auto Timescale        |     1.70163E-01     |
 | W-Mom                | Auto Timescale        |     1.70163E-01     |
 +----------------------+-----------------------+---------------------+
 | H-Energy             | Auto Timescale        |     1.70163E-01     |
 +----------------------+-----------------------+---------------------+
 | K-TurbKE             | Auto Timescale        |     1.70163E-01     |
 | E-Diss.K             | Auto Timescale        |     1.70163E-01     |
 +----------------------+-----------------------+---------------------+

 ======================================================================
 OUTER LOOP ITERATION =  362 (    1) CPU SECONDS = 2.527E+02 (3.415E+00)
 ----------------------------------------------------------------------
 |       Equation       | Rate | RMS Res | Max Res |  Linear Solution |
 +----------------------+------+---------+---------+------------------+
 | U-Mom                | 0.00 | 4.6E-03 | 1.0E-01 |       1.2E-01  ok|
 | V-Mom                | 0.00 | 6.5E-03 | 1.4E-01 |       1.0E-01  ok|
 | W-Mom                | 0.00 | 4.9E-03 | 1.4E-01 |       1.4E-01  ok|
 | P-Mass               | 0.00 | 7.4E-03 | 1.8E-01 |  5.2  7.5E-02  OK|
 +----------------------+------+---------+---------+------------------+
 | H-Energy             | 0.00 | 1.2E-02 | 3.3E-01 |  5.4  3.4E-02  OK|
 +----------------------+------+---------+---------+------------------+
 | K-TurbKE             | 0.00 | 7.5E-03 | 1.1E-01 |  5.4  4.2E-02  OK|
 | E-Diss.K             | 0.00 | 4.1E-02 | 6.8E-01 |  7.1  4.6E-03  OK|
 +----------------------+------+---------+---------+------------------+

 ======================================================================
 OUTER LOOP ITERATION =  363 (    2) CPU SECONDS = 2.538E+02 (4.514E+00)
 ----------------------------------------------------------------------
 |       Equation       | Rate | RMS Res | Max Res |  Linear Solution |
 +----------------------+------+---------+---------+------------------+
 | U-Mom                | 2.64 | 1.2E-02 | 1.7E-01 |       3.9E-02  OK|
 | V-Mom                | 1.62 | 1.0E-02 | 1.7E-01 |       4.2E-02  OK|
 | W-Mom                | 2.00 | 9.7E-03 | 1.9E-01 |       2.8E-02  OK|
 | P-Mass               | 0.15 | 1.1E-03 | 4.7E-02 |  9.4  5.3E-02  OK|
 +----------------------+------+---------+---------+------------------+
 | H-Energy             | 0.48 | 5.9E-03 | 1.2E-01 |  5.4  6.1E-02  OK|
 +----------------------+------+---------+---------+------------------+
 | K-TurbKE             | 1.39 | 1.0E-02 | 2.6E-01 |  5.4  3.7E-02  OK|
 | E-Diss.K             | 0.59 | 2.4E-02 | 4.6E-01 |  7.2  2.4E-03  OK|
 +----------------------+------+---------+---------+------------------+

 ======================================================================
 OUTER LOOP ITERATION =  364 (    3) CPU SECONDS = 2.548E+02 (5.511E+00)
 ----------------------------------------------------------------------
 |       Equation       | Rate | RMS Res | Max Res |  Linear Solution |
 +----------------------+------+---------+---------+------------------+
 | U-Mom                | 0.94 | 1.1E-02 | 2.8E-01 |       3.5E-02  OK|
 | V-Mom                | 0.97 | 1.0E-02 | 2.7E-01 |       5.4E-02  OK|
 | W-Mom                | 1.06 | 1.0E-02 | 2.6E-01 |       3.9E-02  OK|
 | P-Mass               | 1.03 | 1.1E-03 | 3.6E-02 |  9.4  2.0E-02  OK|
 +----------------------+------+---------+---------+------------------+
 | H-Energy             | 0.76 | 4.5E-03 | 9.2E-02 |  5.4  5.4E-02  OK|
 +----------------------+------+---------+---------+------------------+
 | K-TurbKE             | 0.63 | 6.5E-03 | 2.7E-01 |  5.4  3.7E-02  OK|
 | E-Diss.K             | 0.38 | 9.1E-03 | 2.2E-01 |  7.2  3.2E-03  OK|
 +----------------------+------+---------+---------+------------------+

 ======================================================================
 OUTER LOOP ITERATION =  365 (    4) CPU SECONDS = 2.558E+02 (6.508E+00)
 ----------------------------------------------------------------------
 |       Equation       | Rate | RMS Res | Max Res |  Linear Solution |
 +----------------------+------+---------+---------+------------------+
 | U-Mom                | 0.47 | 5.4E-03 | 1.6E-01 |       1.0E-01  ok|
 | V-Mom                | 0.53 | 5.4E-03 | 1.7E-01 |       1.3E-01  ok|
 | W-Mom                | 0.52 | 5.3E-03 | 1.7E-01 |       1.3E-01  ok|
 | P-Mass               | 1.01 | 1.1E-03 | 3.7E-02 |  5.2  4.7E-02  OK|
 +----------------------+------+---------+---------+------------------+
 | H-Energy             | 0.70 | 3.2E-03 | 5.1E-02 |  5.4  5.0E-02  OK|
 +----------------------+------+---------+---------+------------------+
 | K-TurbKE             | 1.15 | 7.5E-03 | 4.1E-01 |  5.4  3.1E-02  OK|
 | E-Diss.K             | 0.71 | 6.5E-03 | 2.5E-01 |  7.2  2.0E-03  OK|
 +----------------------+------+---------+---------+------------------+

 ======================================================================
 |                        Timescale Information                       |
 ----------------------------------------------------------------------
 |       Equation       |         Type          |      Timescale      |
 +----------------------+-----------------------+---------------------+
 | U-Mom                | Auto Timescale        |     1.80693E-01     |
 | V-Mom                | Auto Timescale        |     1.80693E-01     |
 | W-Mom                | Auto Timescale        |     1.80693E-01     |
 +----------------------+-----------------------+---------------------+
 | H-Energy             | Auto Timescale        |     1.80693E-01     |
 +----------------------+-----------------------+---------------------+
 | K-TurbKE             | Auto Timescale        |     1.80693E-01     |
 | E-Diss.K             | Auto Timescale        |     1.80693E-01     |
 +----------------------+-----------------------+---------------------+

 ======================================================================
 OUTER LOOP ITERATION =  366 (    5) CPU SECONDS = 2.568E+02 (7.534E+00)
 ----------------------------------------------------------------------
 |       Equation       | Rate | RMS Res | Max Res |  Linear Solution |
 +----------------------+------+---------+---------+------------------+
 | U-Mom                | 0.63 | 3.4E-03 | 1.0E-01 |       1.1E-01  ok|
 | V-Mom                | 0.63 | 3.4E-03 | 1.0E-01 |       1.2E-01  ok|
 | W-Mom                | 0.60 | 3.2E-03 | 9.7E-02 |       1.6E-01  ok|
 | P-Mass               | 0.40 | 4.6E-04 | 1.6E-02 |  5.2  3.9E-02  OK|
 +----------------------+------+---------+---------+------------------+
 | H-Energy             | 0.79 | 2.5E-03 | 5.5E-02 |  5.4  5.7E-02  OK|
 +----------------------+------+---------+---------+------------------+
 | K-TurbKE             | 0.53 | 4.0E-03 | 1.5E-01 |  5.4  3.4E-02  OK|
 | E-Diss.K             | 0.55 | 3.6E-03 | 1.2E-01 |  7.2  3.2E-03  OK|
 +----------------------+------+---------+---------+------------------+

 ======================================================================
 OUTER LOOP ITERATION =  367 (    6) CPU SECONDS = 2.578E+02 (8.512E+00)
 ----------------------------------------------------------------------
 |       Equation       | Rate | RMS Res | Max Res |  Linear Solution |
 +----------------------+------+---------+---------+------------------+
 | U-Mom                | 0.65 | 2.2E-03 | 5.6E-02 |       1.2E-01  ok|
 | V-Mom                | 0.58 | 2.0E-03 | 5.8E-02 |       1.3E-01  ok|
 | W-Mom                | 0.57 | 1.8E-03 | 5.4E-02 |       2.1E-01  ok|
 | P-Mass               | 0.48 | 2.2E-04 | 7.6E-03 |  5.2  5.7E-02  OK|
 +----------------------+------+---------+---------+------------------+
 | H-Energy             | 0.86 | 2.2E-03 | 6.4E-02 |  5.4  5.2E-02  OK|
 +----------------------+------+---------+---------+------------------+
 | K-TurbKE             | 0.50 | 2.0E-03 | 6.0E-02 |  5.4  3.2E-02  OK|
 | E-Diss.K             | 0.58 | 2.1E-03 | 4.2E-02 |  7.2  5.8E-03  OK|
 +----------------------+------+---------+---------+------------------+

 ======================================================================
 OUTER LOOP ITERATION =  368 (    7) CPU SECONDS = 2.588E+02 (9.512E+00)
 ----------------------------------------------------------------------
 |       Equation       | Rate | RMS Res | Max Res |  Linear Solution |
 +----------------------+------+---------+---------+------------------+
 | U-Mom                | 0.69 | 1.5E-03 | 2.9E-02 |       1.3E-01  ok|
 | V-Mom                | 0.62 | 1.2E-03 | 3.0E-02 |       1.6E-01  ok|
 | W-Mom                | 0.59 | 1.1E-03 | 3.0E-02 |       2.3E-01  ok|
 | P-Mass               | 0.61 | 1.3E-04 | 3.5E-03 |  5.2  7.8E-02  OK|
 +----------------------+------+---------+---------+------------------+
 | H-Energy             | 0.79 | 1.7E-03 | 4.8E-02 |  5.4  4.7E-02  OK|
 +----------------------+------+---------+---------+------------------+
 | K-TurbKE             | 0.56 | 1.1E-03 | 2.8E-02 |  5.4  3.4E-02  OK|
 | E-Diss.K             | 0.48 | 1.0E-03 | 2.0E-02 |  7.2  1.1E-02  OK|
 +----------------------+------+---------+---------+------------------+

 ======================================================================
 OUTER LOOP ITERATION =  369 (    8) CPU SECONDS = 2.599E+02 (1.061E+01)
 ----------------------------------------------------------------------
 |       Equation       | Rate | RMS Res | Max Res |  Linear Solution |
 +----------------------+------+---------+---------+------------------+
 | U-Mom                | 0.69 | 1.0E-03 | 1.9E-02 |       4.4E-02  OK|
 | V-Mom                | 0.71 | 8.6E-04 | 1.6E-02 |       5.6E-02  OK|
 | W-Mom                | 0.62 | 6.5E-04 | 1.5E-02 |       4.3E-02  OK|
 | P-Mass               | 0.72 | 9.7E-05 | 2.8E-03 |  9.4  3.9E-02  OK|
 +----------------------+------+---------+---------+------------------+
 | H-Energy             | 0.77 | 1.3E-03 | 4.0E-02 |  5.4  4.6E-02  OK|
 +----------------------+------+---------+---------+------------------+
 | K-TurbKE             | 0.70 | 7.8E-04 | 1.2E-02 |  5.4  4.3E-02  OK|
 | E-Diss.K             | 0.67 | 6.7E-04 | 2.0E-02 |  7.2  1.6E-02  OK|
 +----------------------+------+---------+---------+------------------+

 ======================================================================
 OUTER LOOP ITERATION =  370 (    9) CPU SECONDS = 2.609E+02 (1.162E+01)
 ----------------------------------------------------------------------
 |       Equation       | Rate | RMS Res | Max Res |  Linear Solution |
 +----------------------+------+---------+---------+------------------+
 | U-Mom                | 0.83 | 8.6E-04 | 1.7E-02 |       5.7E-02  OK|
 | V-Mom                | 0.81 | 6.9E-04 | 1.3E-02 |       6.5E-02  OK|
 | W-Mom                | 0.75 | 4.9E-04 | 8.1E-03 |       5.2E-02  OK|
 | P-Mass               | 0.70 | 6.8E-05 | 1.2E-03 |  9.4  5.0E-02  OK|
 +----------------------+------+---------+---------+------------------+
 | H-Energy             | 0.86 | 1.1E-03 | 2.7E-02 |  5.4  4.6E-02  OK|
 +----------------------+------+---------+---------+------------------+
 | K-TurbKE             | 0.82 | 6.4E-04 | 7.3E-03 |  5.4  5.3E-02  OK|
 | E-Diss.K             | 1.11 | 7.5E-04 | 2.9E-02 |  7.2  1.5E-02  OK|
 +----------------------+------+---------+---------+------------------+

 ======================================================================
 |                        Timescale Information                       |
 ----------------------------------------------------------------------
 |       Equation       |         Type          |      Timescale      |
 +----------------------+-----------------------+---------------------+
 | U-Mom                | Auto Timescale        |     1.81426E-01     |
 | V-Mom                | Auto Timescale        |     1.81426E-01     |
 | W-Mom                | Auto Timescale        |     1.81426E-01     |
 +----------------------+-----------------------+---------------------+
 | H-Energy             | Auto Timescale        |     1.81426E-01     |
 +----------------------+-----------------------+---------------------+
 | K-TurbKE             | Auto Timescale        |     1.81426E-01     |
 | E-Diss.K             | Auto Timescale        |     1.81426E-01     |
 +----------------------+-----------------------+---------------------+

 ======================================================================
 OUTER LOOP ITERATION =  371 (   10) CPU SECONDS = 2.619E+02 (1.267E+01)
 ----------------------------------------------------------------------
 |       Equation       | Rate | RMS Res | Max Res |  Linear Solution |
 +----------------------+------+---------+---------+------------------+
 | U-Mom                | 0.84 | 7.2E-04 | 1.4E-02 |       6.4E-02  OK|
 | V-Mom                | 0.82 | 5.7E-04 | 1.2E-02 |       6.5E-02  OK|
 | W-Mom                | 0.86 | 4.3E-04 | 5.1E-03 |       5.8E-02  OK|
 | P-Mass               | 0.88 | 6.0E-05 | 1.3E-03 |  9.4  5.8E-02  OK|
 +----------------------+------+---------+---------+------------------+
 | H-Energy             | 0.86 | 9.7E-04 | 2.4E-02 |  5.4  4.8E-02  OK|
 +----------------------+------+---------+---------+------------------+
 | K-TurbKE             | 0.89 | 5.7E-04 | 6.5E-03 |  5.4  5.9E-02  OK|
 | E-Diss.K             | 1.12 | 8.4E-04 | 3.3E-02 |  7.2  1.3E-02  OK|
 +----------------------+------+---------+---------+------------------+

 ======================================================================
 OUTER LOOP ITERATION =  372 (   11) CPU SECONDS = 2.631E+02 (1.386E+01)
 ----------------------------------------------------------------------
 |       Equation       | Rate | RMS Res | Max Res |  Linear Solution |
 +----------------------+------+---------+---------+------------------+
 | U-Mom                | 0.79 | 5.7E-04 | 9.1E-03 |       6.6E-02  OK|
 | V-Mom                | 0.82 | 4.6E-04 | 1.1E-02 |       6.4E-02  OK|
 | W-Mom                | 0.87 | 3.7E-04 | 4.9E-03 |       6.0E-02  OK|
 | P-Mass               | 0.94 | 5.6E-05 | 1.5E-03 |  9.4  6.5E-02  OK|
 +----------------------+------+---------+---------+------------------+
 | H-Energy             | 0.86 | 8.3E-04 | 1.6E-02 |  5.4  4.6E-02  OK|
 +----------------------+------+---------+---------+------------------+
 | K-TurbKE             | 0.93 | 5.2E-04 | 6.7E-03 |  5.4  6.0E-02  OK|
 | E-Diss.K             | 1.03 | 8.6E-04 | 3.4E-02 |  7.2  1.3E-02  OK|
 +----------------------+------+---------+---------+------------------+

 ======================================================================
 OUTER LOOP ITERATION =  373 (   12) CPU SECONDS = 2.643E+02 (1.503E+01)
 ----------------------------------------------------------------------
 |       Equation       | Rate | RMS Res | Max Res |  Linear Solution |
 +----------------------+------+---------+---------+------------------+
 | U-Mom                | 0.78 | 4.5E-04 | 6.8E-03 |       6.8E-02  OK|
 | V-Mom                | 0.83 | 3.9E-04 | 8.8E-03 |       6.4E-02  OK|
 | W-Mom                | 0.88 | 3.3E-04 | 5.0E-03 |       6.2E-02  OK|
 | P-Mass               | 0.93 | 5.2E-05 | 1.4E-03 |  9.4  7.2E-02  OK|
 +----------------------+------+---------+---------+------------------+
 | H-Energy             | 0.88 | 7.3E-04 | 1.0E-02 |  5.4  4.7E-02  OK|
 +----------------------+------+---------+---------+------------------+
 | K-TurbKE             | 0.95 | 5.0E-04 | 7.3E-03 |  5.4  5.7E-02  OK|
 | E-Diss.K             | 0.98 | 8.5E-04 | 3.3E-02 |  7.2  1.3E-02  OK|
 +----------------------+------+---------+---------+------------------+

 ======================================================================
 OUTER LOOP ITERATION =  374 (   13) CPU SECONDS = 2.655E+02 (1.621E+01)
 ----------------------------------------------------------------------
 |       Equation       | Rate | RMS Res | Max Res |  Linear Solution |
 +----------------------+------+---------+---------+------------------+
 | U-Mom                | 0.80 | 3.6E-04 | 4.6E-03 |       6.8E-02  OK|
 | V-Mom                | 0.85 | 3.3E-04 | 7.4E-03 |       6.4E-02  OK|
 | W-Mom                | 0.90 | 2.9E-04 | 5.6E-03 |       6.4E-02  OK|
 | P-Mass               | 0.91 | 4.8E-05 | 1.2E-03 |  9.4  7.8E-02  OK|
 +----------------------+------+---------+---------+------------------+
 | H-Energy             | 0.89 | 6.5E-04 | 9.4E-03 |  5.4  4.7E-02  OK|
 +----------------------+------+---------+---------+------------------+
 | K-TurbKE             | 0.96 | 4.8E-04 | 7.4E-03 |  5.4  5.5E-02  OK|
 | E-Diss.K             | 0.95 | 8.1E-04 | 3.1E-02 |  7.2  1.3E-02  OK|
 +----------------------+------+---------+---------+------------------+

 ======================================================================
 OUTER LOOP ITERATION =  375 (   14) CPU SECONDS = 2.666E+02 (1.735E+01)
 ----------------------------------------------------------------------
 |       Equation       | Rate | RMS Res | Max Res |  Linear Solution |
 +----------------------+------+---------+---------+------------------+
 | U-Mom                | 0.85 | 3.0E-04 | 4.4E-03 |       6.8E-02  OK|
 | V-Mom                | 0.88 | 2.9E-04 | 6.3E-03 |       6.4E-02  OK|
 | W-Mom                | 0.93 | 2.7E-04 | 5.9E-03 |       6.7E-02  OK|
 | P-Mass               | 0.91 | 4.3E-05 | 1.2E-03 |  9.4  8.4E-02  OK|
 +----------------------+------+---------+---------+------------------+
 | H-Energy             | 0.90 | 5.9E-04 | 7.6E-03 |  5.4  4.8E-02  OK|
 +----------------------+------+---------+---------+------------------+
 | K-TurbKE             | 0.97 | 4.6E-04 | 7.1E-03 |  5.4  5.3E-02  OK|
 | E-Diss.K             | 0.92 | 7.5E-04 | 2.8E-02 |  7.2  1.3E-02  OK|
 +----------------------+------+---------+---------+------------------+

 ======================================================================
 |                        Timescale Information                       |
 ----------------------------------------------------------------------
 |       Equation       |         Type          |      Timescale      |
 +----------------------+-----------------------+---------------------+
 | U-Mom                | Auto Timescale        |     1.78808E-01     |
 | V-Mom                | Auto Timescale        |     1.78808E-01     |
 | W-Mom                | Auto Timescale        |     1.78808E-01     |
 +----------------------+-----------------------+---------------------+
 | H-Energy             | Auto Timescale        |     1.78808E-01     |
 +----------------------+-----------------------+---------------------+
 | K-TurbKE             | Auto Timescale        |     1.78808E-01     |
 | E-Diss.K             | Auto Timescale        |     1.78808E-01     |
 +----------------------+-----------------------+---------------------+

 ======================================================================
 OUTER LOOP ITERATION =  376 (   15) CPU SECONDS = 2.677E+02 (1.849E+01)
 ----------------------------------------------------------------------
 |       Equation       | Rate | RMS Res | Max Res |  Linear Solution |
 +----------------------+------+---------+---------+------------------+
 | U-Mom                | 0.89 | 2.7E-04 | 4.7E-03 |       6.7E-02  OK|
 | V-Mom                | 0.92 | 2.7E-04 | 5.1E-03 |       6.3E-02  OK|
 | W-Mom                | 0.94 | 2.6E-04 | 6.2E-03 |       7.0E-02  OK|
 | P-Mass               | 0.91 | 3.9E-05 | 1.1E-03 |  9.4  8.9E-02  OK|
 +----------------------+------+---------+---------+------------------+
 | H-Energy             | 0.91 | 5.4E-04 | 6.9E-03 |  5.4  4.8E-02  OK|
 +----------------------+------+---------+---------+------------------+
 | K-TurbKE             | 0.97 | 4.5E-04 | 6.4E-03 |  5.4  5.0E-02  OK|
 | E-Diss.K             | 0.90 | 6.7E-04 | 2.4E-02 |  7.2  1.3E-02  OK|
 +----------------------+------+---------+---------+------------------+

 ======================================================================
 OUTER LOOP ITERATION =  377 (   16) CPU SECONDS = 2.688E+02 (1.953E+01)
 ----------------------------------------------------------------------
 |       Equation       | Rate | RMS Res | Max Res |  Linear Solution |
 +----------------------+------+---------+---------+------------------+
 | U-Mom                | 0.92 | 2.5E-04 | 5.3E-03 |       6.6E-02  OK|
 | V-Mom                | 0.94 | 2.5E-04 | 4.6E-03 |       6.3E-02  OK|
 | W-Mom                | 0.96 | 2.5E-04 | 6.2E-03 |       7.4E-02  OK|
 | P-Mass               | 0.91 | 3.6E-05 | 9.5E-04 |  9.4  9.5E-02  OK|
 +----------------------+------+---------+---------+------------------+
 | H-Energy             | 0.93 | 5.0E-04 | 6.5E-03 |  5.4  4.9E-02  OK|
 +----------------------+------+---------+---------+------------------+
 | K-TurbKE             | 0.97 | 4.3E-04 | 5.6E-03 |  5.4  4.9E-02  OK|
 | E-Diss.K             | 0.90 | 6.0E-04 | 2.1E-02 |  7.2  1.3E-02  OK|
 +----------------------+------+---------+---------+------------------+

 ======================================================================
 OUTER LOOP ITERATION =  378 (   17) CPU SECONDS = 2.699E+02 (2.063E+01)
 ----------------------------------------------------------------------
 |       Equation       | Rate | RMS Res | Max Res |  Linear Solution |
 +----------------------+------+---------+---------+------------------+
 | U-Mom                | 0.93 | 2.3E-04 | 6.0E-03 |       6.5E-02  OK|
 | V-Mom                | 0.96 | 2.4E-04 | 5.0E-03 |       6.3E-02  OK|
 | W-Mom                | 0.95 | 2.3E-04 | 6.1E-03 |       7.8E-02  OK|
 | P-Mass               | 0.92 | 3.3E-05 | 8.3E-04 |  9.4  9.9E-02  OK|
 +----------------------+------+---------+---------+------------------+
 | H-Energy             | 0.94 | 4.7E-04 | 6.7E-03 |  5.4  5.0E-02  OK|
 +----------------------+------+---------+---------+------------------+
 | K-TurbKE             | 0.98 | 4.2E-04 | 4.8E-03 |  5.4  4.9E-02  OK|
 | E-Diss.K             | 0.90 | 5.4E-04 | 1.8E-02 |  7.2  1.4E-02  OK|
 +----------------------+------+---------+---------+------------------+

 ======================================================================
 OUTER LOOP ITERATION =  379 (   18) CPU SECONDS = 2.711E+02 (2.181E+01)
 ----------------------------------------------------------------------
 |       Equation       | Rate | RMS Res | Max Res |  Linear Solution |
 +----------------------+------+---------+---------+------------------+
 | U-Mom                | 0.94 | 2.2E-04 | 6.5E-03 |       2.4E-02  OK|
 | V-Mom                | 0.97 | 2.3E-04 | 5.3E-03 |       2.2E-02  OK|
 | W-Mom                | 0.95 | 2.2E-04 | 6.0E-03 |       3.6E-02  OK|
 | P-Mass               | 0.93 | 3.1E-05 | 7.1E-04 | 13.5  3.7E-02  OK|
 +----------------------+------+---------+---------+------------------+
 | H-Energy             | 0.93 | 4.3E-04 | 6.1E-03 |  5.4  5.2E-02  OK|
 +----------------------+------+---------+---------+------------------+
 | K-TurbKE             | 0.99 | 4.2E-04 | 4.1E-03 |  5.4  4.9E-02  OK|
 | E-Diss.K             | 0.94 | 5.1E-04 | 1.6E-02 |  7.2  1.4E-02  OK|
 +----------------------+------+---------+---------+------------------+

 ======================================================================
 OUTER LOOP ITERATION =  380 (   19) CPU SECONDS = 2.722E+02 (2.296E+01)
 ----------------------------------------------------------------------
 |       Equation       | Rate | RMS Res | Max Res |  Linear Solution |
 +----------------------+------+---------+---------+------------------+
 | U-Mom                | 0.94 | 2.0E-04 | 6.8E-03 |       2.2E-02  OK|
 | V-Mom                | 0.98 | 2.3E-04 | 5.4E-03 |       2.0E-02  OK|
 | W-Mom                | 0.95 | 2.1E-04 | 6.3E-03 |       3.2E-02  OK|
 | P-Mass               | 0.97 | 3.0E-05 | 6.1E-04 | 13.5  3.4E-02  OK|
 +----------------------+------+---------+---------+------------------+
 | H-Energy             | 0.93 | 4.1E-04 | 5.7E-03 |  5.4  5.3E-02  OK|
 +----------------------+------+---------+---------+------------------+
 | K-TurbKE             | 0.99 | 4.2E-04 | 3.9E-03 |  5.4  4.9E-02  OK|
 | E-Diss.K             | 0.92 | 4.7E-04 | 1.4E-02 |  7.2  1.4E-02  OK|
 +----------------------+------+---------+---------+------------------+

 ======================================================================
 |                        Timescale Information                       |
 ----------------------------------------------------------------------
 |       Equation       |         Type          |      Timescale      |
 +----------------------+-----------------------+---------------------+
 | U-Mom                | Auto Timescale        |     1.75920E-01     |
 | V-Mom                | Auto Timescale        |     1.75920E-01     |
 | W-Mom                | Auto Timescale        |     1.75920E-01     |
 +----------------------+-----------------------+---------------------+
 | H-Energy             | Auto Timescale        |     1.75920E-01     |
 +----------------------+-----------------------+---------------------+
 | K-TurbKE             | Auto Timescale        |     1.75920E-01     |
 | E-Diss.K             | Auto Timescale        |     1.75920E-01     |
 +----------------------+-----------------------+---------------------+

 ======================================================================
 OUTER LOOP ITERATION =  381 (   20) CPU SECONDS = 2.733E+02 (2.405E+01)
 ----------------------------------------------------------------------
 |       Equation       | Rate | RMS Res | Max Res |  Linear Solution |
 +----------------------+------+---------+---------+------------------+
 | U-Mom                | 0.93 | 1.9E-04 | 7.0E-03 |       2.2E-02  OK|
 | V-Mom                | 0.98 | 2.3E-04 | 5.5E-03 |       2.0E-02  OK|
 | W-Mom                | 0.94 | 2.0E-04 | 6.7E-03 |       3.2E-02  OK|
 | P-Mass               | 0.94 | 2.8E-05 | 5.1E-04 | 13.5  3.5E-02  OK|
 +----------------------+------+---------+---------+------------------+
 | H-Energy             | 0.93 | 3.8E-04 | 6.8E-03 |  5.4  5.4E-02  OK|
 +----------------------+------+---------+---------+------------------+
 | K-TurbKE             | 0.99 | 4.1E-04 | 3.7E-03 |  5.4  4.8E-02  OK|
 | E-Diss.K             | 0.93 | 4.4E-04 | 1.2E-02 |  7.2  1.5E-02  OK|
 +----------------------+------+---------+---------+------------------+

 ======================================================================
 OUTER LOOP ITERATION =  382 (   21) CPU SECONDS = 2.744E+02 (2.512E+01)
 ----------------------------------------------------------------------
 |       Equation       | Rate | RMS Res | Max Res |  Linear Solution |
 +----------------------+------+---------+---------+------------------+
 | U-Mom                | 0.92 | 1.7E-04 | 7.0E-03 |       2.3E-02  OK|
 | V-Mom                | 0.98 | 2.2E-04 | 5.5E-03 |       1.9E-02  OK|
 | W-Mom                | 0.94 | 1.9E-04 | 6.7E-03 |       3.2E-02  OK|
 | P-Mass               | 0.96 | 2.7E-05 | 4.3E-04 | 13.5  3.5E-02  OK|
 +----------------------+------+---------+---------+------------------+
 | H-Energy             | 0.92 | 3.5E-04 | 5.8E-03 |  5.4  5.6E-02  OK|
 +----------------------+------+---------+---------+------------------+
 | K-TurbKE             | 0.99 | 4.0E-04 | 3.5E-03 |  5.4  4.8E-02  OK|
 | E-Diss.K             | 0.96 | 4.2E-04 | 1.2E-02 |  7.2  1.5E-02  OK|
 +----------------------+------+---------+---------+------------------+

 ======================================================================
 OUTER LOOP ITERATION =  383 (   22) CPU SECONDS = 2.755E+02 (2.620E+01)
 ----------------------------------------------------------------------
 |       Equation       | Rate | RMS Res | Max Res |  Linear Solution |
 +----------------------+------+---------+---------+------------------+
 | U-Mom                | 0.91 | 1.6E-04 | 6.8E-03 |       2.4E-02  OK|
 | V-Mom                | 0.97 | 2.1E-04 | 6.5E-03 |       1.9E-02  OK|
 | W-Mom                | 0.93 | 1.7E-04 | 6.5E-03 |       3.2E-02  OK|
 | P-Mass               | 0.97 | 2.6E-05 | 3.6E-04 | 13.5  3.6E-02  OK|
 +----------------------+------+---------+---------+------------------+
 | H-Energy             | 0.91 | 3.2E-04 | 4.9E-03 |  5.4  5.6E-02  OK|
 +----------------------+------+---------+---------+------------------+
 | K-TurbKE             | 0.98 | 4.0E-04 | 3.4E-03 |  5.4  4.9E-02  OK|
 | E-Diss.K             | 0.98 | 4.1E-04 | 1.1E-02 |  7.2  1.6E-02  OK|
 +----------------------+------+---------+---------+------------------+

 ======================================================================
 OUTER LOOP ITERATION =  384 (   23) CPU SECONDS = 2.765E+02 (2.727E+01)
 ----------------------------------------------------------------------
 |       Equation       | Rate | RMS Res | Max Res |  Linear Solution |
 +----------------------+------+---------+---------+------------------+
 | U-Mom                | 0.91 | 1.4E-04 | 6.4E-03 |       2.5E-02  OK|
 | V-Mom                | 0.95 | 2.0E-04 | 7.3E-03 |       1.9E-02  OK|
 | W-Mom                | 0.92 | 1.6E-04 | 6.0E-03 |       3.2E-02  OK|
 | P-Mass               | 0.97 | 2.5E-05 | 3.0E-04 | 13.5  3.6E-02  OK|
 +----------------------+------+---------+---------+------------------+
 | H-Energy             | 0.92 | 2.9E-04 | 4.5E-03 |  5.4  5.8E-02  OK|
 +----------------------+------+---------+---------+------------------+
 | K-TurbKE             | 0.98 | 3.9E-04 | 3.3E-03 |  5.4  4.9E-02  OK|
 | E-Diss.K             | 0.99 | 4.0E-04 | 1.2E-02 |  7.2  1.6E-02  OK|
 +----------------------+------+---------+---------+------------------+

 ======================================================================
 OUTER LOOP ITERATION =  385 (   24) CPU SECONDS = 2.776E+02 (2.834E+01)
 ----------------------------------------------------------------------
 |       Equation       | Rate | RMS Res | Max Res |  Linear Solution |
 +----------------------+------+---------+---------+------------------+
 | U-Mom                | 0.92 | 1.3E-04 | 6.0E-03 |       2.5E-02  OK|
 | V-Mom                | 0.94 | 1.9E-04 | 7.7E-03 |       1.9E-02  OK|
 | W-Mom                | 0.92 | 1.5E-04 | 5.5E-03 |       3.3E-02  OK|
 | P-Mass               | 0.97 | 2.4E-05 | 2.6E-04 | 13.5  3.6E-02  OK|
 +----------------------+------+---------+---------+------------------+
 | H-Energy             | 0.91 | 2.6E-04 | 3.3E-03 |  5.4  5.9E-02  OK|
 +----------------------+------+---------+---------+------------------+
 | K-TurbKE             | 0.98 | 3.8E-04 | 3.4E-03 |  5.4  4.9E-02  OK|
 | E-Diss.K             | 0.99 | 4.0E-04 | 1.2E-02 |  7.2  1.6E-02  OK|
 +----------------------+------+---------+---------+------------------+

 ======================================================================
 |                        Timescale Information                       |
 ----------------------------------------------------------------------
 |       Equation       |         Type          |      Timescale      |
 +----------------------+-----------------------+---------------------+
 | U-Mom                | Auto Timescale        |     1.73095E-01     |
 | V-Mom                | Auto Timescale        |     1.73095E-01     |
 | W-Mom                | Auto Timescale        |     1.73095E-01     |
 +----------------------+-----------------------+---------------------+
 | H-Energy             | Auto Timescale        |     1.73095E-01     |
 +----------------------+-----------------------+---------------------+
 | K-TurbKE             | Auto Timescale        |     1.73095E-01     |
 | E-Diss.K             | Auto Timescale        |     1.73095E-01     |
 +----------------------+-----------------------+---------------------+

 ======================================================================
 OUTER LOOP ITERATION =  386 (   25) CPU SECONDS = 2.787E+02 (2.946E+01)
 ----------------------------------------------------------------------
 |       Equation       | Rate | RMS Res | Max Res |  Linear Solution |
 +----------------------+------+---------+---------+------------------+
 | U-Mom                | 0.93 | 1.2E-04 | 5.5E-03 |       2.5E-02  OK|
 | V-Mom                | 0.92 | 1.8E-04 | 7.6E-03 |       1.9E-02  OK|
 | W-Mom                | 0.92 | 1.4E-04 | 4.8E-03 |       3.3E-02  OK|
 | P-Mass               | 0.97 | 2.4E-05 | 2.2E-04 | 13.5  3.6E-02  OK|
 +----------------------+------+---------+---------+------------------+
 | H-Energy             | 0.91 | 2.4E-04 | 2.3E-03 |  5.4  5.9E-02  OK|
 +----------------------+------+---------+---------+------------------+
 | K-TurbKE             | 0.97 | 3.7E-04 | 3.3E-03 |  5.4  4.9E-02  OK|
 | E-Diss.K             | 0.98 | 3.9E-04 | 1.1E-02 |  7.2  1.6E-02  OK|
 +----------------------+------+---------+---------+------------------+

 ======================================================================
 OUTER LOOP ITERATION =  387 (   26) CPU SECONDS = 2.798E+02 (3.053E+01)
 ----------------------------------------------------------------------
 |       Equation       | Rate | RMS Res | Max Res |  Linear Solution |
 +----------------------+------+---------+---------+------------------+
 | U-Mom                | 0.95 | 1.2E-04 | 4.9E-03 |       2.5E-02  OK|
 | V-Mom                | 0.91 | 1.6E-04 | 6.9E-03 |       2.0E-02  OK|
 | W-Mom                | 0.92 | 1.3E-04 | 4.4E-03 |       3.4E-02  OK|
 | P-Mass               | 0.97 | 2.3E-05 | 2.1E-04 | 13.5  3.7E-02  OK|
 +----------------------+------+---------+---------+------------------+
 | H-Energy             | 0.92 | 2.2E-04 | 2.0E-03 |  5.4  6.0E-02  OK|
 +----------------------+------+---------+---------+------------------+
 | K-TurbKE             | 0.97 | 3.6E-04 | 3.1E-03 |  5.4  4.9E-02  OK|
 | E-Diss.K             | 0.98 | 3.8E-04 | 1.1E-02 |  7.2  1.7E-02  OK|
 +----------------------+------+---------+---------+------------------+

 ======================================================================
 OUTER LOOP ITERATION =  388 (   27) CPU SECONDS = 2.809E+02 (3.166E+01)
 ----------------------------------------------------------------------
 |       Equation       | Rate | RMS Res | Max Res |  Linear Solution |
 +----------------------+------+---------+---------+------------------+
 | U-Mom                | 0.96 | 1.1E-04 | 4.4E-03 |       2.4E-02  OK|
 | V-Mom                | 0.90 | 1.4E-04 | 6.0E-03 |       2.1E-02  OK|
 | W-Mom                | 0.92 | 1.2E-04 | 4.0E-03 |       3.5E-02  OK|
 | P-Mass               | 0.97 | 2.2E-05 | 2.0E-04 | 13.5  3.8E-02  OK|
 +----------------------+------+---------+---------+------------------+
 | H-Energy             | 0.93 | 2.1E-04 | 1.9E-03 |  5.4  6.1E-02  OK|
 +----------------------+------+---------+---------+------------------+
 | K-TurbKE             | 0.96 | 3.5E-04 | 2.9E-03 |  5.4  4.9E-02  OK|
 | E-Diss.K             | 0.97 | 3.7E-04 | 1.1E-02 |  7.2  1.7E-02  OK|
 +----------------------+------+---------+---------+------------------+

 ======================================================================
 OUTER LOOP ITERATION =  389 (   28) CPU SECONDS = 2.820E+02 (3.274E+01)
 ----------------------------------------------------------------------
 |       Equation       | Rate | RMS Res | Max Res |  Linear Solution |
 +----------------------+------+---------+---------+------------------+
 | U-Mom                | 0.97 | 1.1E-04 | 4.0E-03 |       2.3E-02  OK|
 | V-Mom                | 0.90 | 1.3E-04 | 5.0E-03 |       2.2E-02  OK|
 | W-Mom                | 0.92 | 1.1E-04 | 3.6E-03 |       3.7E-02  OK|
 | P-Mass               | 0.97 | 2.1E-05 | 1.9E-04 | 13.5  3.9E-02  OK|
 +----------------------+------+---------+---------+------------------+
 | H-Energy             | 0.94 | 1.9E-04 | 1.9E-03 |  5.4  6.1E-02  OK|
 +----------------------+------+---------+---------+------------------+
 | K-TurbKE             | 0.96 | 3.3E-04 | 2.7E-03 |  5.4  4.9E-02  OK|
 | E-Diss.K             | 0.97 | 3.6E-04 | 1.0E-02 |  7.2  1.7E-02  OK|
 +----------------------+------+---------+---------+------------------+

 ======================================================================
 OUTER LOOP ITERATION =  390 (   29) CPU SECONDS = 2.831E+02 (3.386E+01)
 ----------------------------------------------------------------------
 |       Equation       | Rate | RMS Res | Max Res |  Linear Solution |
 +----------------------+------+---------+---------+------------------+
 | U-Mom                | 0.97 | 1.0E-04 | 3.6E-03 |       2.2E-02  OK|
 | V-Mom                | 0.90 | 1.2E-04 | 3.8E-03 |       2.3E-02  OK|
 | W-Mom                | 0.92 | 9.7E-05 | 3.1E-03 |       3.8E-02  OK|
 | P-Mass               | 0.97 | 2.1E-05 | 1.9E-04 | 13.5  4.0E-02  OK|
 +----------------------+------+---------+---------+------------------+
 | H-Energy             | 0.95 | 1.8E-04 | 2.0E-03 |  5.4  6.2E-02  OK|
 +----------------------+------+---------+---------+------------------+
 | K-TurbKE             | 0.96 | 3.2E-04 | 2.5E-03 |  5.4  4.9E-02  OK|
 | E-Diss.K             | 0.96 | 3.4E-04 | 1.0E-02 |  7.2  1.7E-02  OK|
 +----------------------+------+---------+---------+------------------+

 ======================================================================
 |                        Timescale Information                       |
 ----------------------------------------------------------------------
 |       Equation       |         Type          |      Timescale      |
 +----------------------+-----------------------+---------------------+
 | U-Mom                | Auto Timescale        |     1.70512E-01     |
 | V-Mom                | Auto Timescale        |     1.70512E-01     |
 | W-Mom                | Auto Timescale        |     1.70512E-01     |
 +----------------------+-----------------------+---------------------+
 | H-Energy             | Auto Timescale        |     1.70512E-01     |
 +----------------------+-----------------------+---------------------+
 | K-TurbKE             | Auto Timescale        |     1.70512E-01     |
 | E-Diss.K             | Auto Timescale        |     1.70512E-01     |
 +----------------------+-----------------------+---------------------+

 ======================================================================
 OUTER LOOP ITERATION =  391 (   30) CPU SECONDS = 2.842E+02 (3.493E+01)
 ----------------------------------------------------------------------
 |       Equation       | Rate | RMS Res | Max Res |  Linear Solution |
 +----------------------+------+---------+---------+------------------+
 | U-Mom                | 0.96 | 1.0E-04 | 3.8E-03 |       2.1E-02  OK|
 | V-Mom                | 0.91 | 1.1E-04 | 3.3E-03 |       2.4E-02  OK|
 | W-Mom                | 0.91 | 8.9E-05 | 2.7E-03 |       4.0E-02  OK|
 | P-Mass               | 0.96 | 2.0E-05 | 1.8E-04 | 13.5  4.1E-02  OK|
 +----------------------+------+---------+---------+------------------+
 | H-Energy             | 0.96 | 1.8E-04 | 2.4E-03 |  5.4  6.2E-02  OK|
 +----------------------+------+---------+---------+------------------+
 | K-TurbKE             | 0.95 | 3.0E-04 | 2.3E-03 |  5.4  4.8E-02  OK|
 | E-Diss.K             | 0.95 | 3.3E-04 | 9.3E-03 |  7.2  1.7E-02  OK|
 +----------------------+------+---------+---------+------------------+

 ======================================================================
 OUTER LOOP ITERATION =  392 (   31) CPU SECONDS = 2.852E+02 (3.598E+01)
 ----------------------------------------------------------------------
 |       Equation       | Rate | RMS Res | Max Res |  Linear Solution |
 +----------------------+------+---------+---------+------------------+
 | U-Mom                | 0.96 | 9.7E-05 | 3.8E-03 |       2.1E-02  OK|
 | V-Mom                | 0.92 | 9.7E-05 | 3.1E-03 |       2.5E-02  OK|
 | W-Mom                | 0.91 | 8.1E-05 | 2.3E-03 |       4.1E-02  OK|
 | P-Mass               | 0.96 | 1.9E-05 | 1.7E-04 | 13.5  4.2E-02  OK|
 +----------------------+------+---------+---------+------------------+
 | H-Energy             | 0.96 | 1.7E-04 | 2.7E-03 |  5.4  6.3E-02  OK|
 +----------------------+------+---------+---------+------------------+
 | K-TurbKE             | 0.95 | 2.9E-04 | 2.1E-03 |  5.4  4.8E-02  OK|
 | E-Diss.K             | 0.95 | 3.1E-04 | 8.5E-03 |  7.2  1.7E-02  OK|
 +----------------------+------+---------+---------+------------------+

 ======================================================================
 OUTER LOOP ITERATION =  393 (   32) CPU SECONDS = 2.863E+02 (3.705E+01)
 ----------------------------------------------------------------------
 |       Equation       | Rate | RMS Res | Max Res |  Linear Solution |
 +----------------------+------+---------+---------+------------------+
 | U-Mom                | 0.96 | 9.2E-05 | 3.6E-03 |       2.1E-02  OK|
 | V-Mom                | 0.94 | 9.1E-05 | 2.9E-03 |       2.6E-02  OK|
 | W-Mom                | 0.91 | 7.4E-05 | 1.9E-03 |       4.3E-02  OK|
 | P-Mass               | 0.96 | 1.8E-05 | 1.5E-04 | 13.5  4.4E-02  OK|
 +----------------------+------+---------+---------+------------------+
 | H-Energy             | 0.97 | 1.6E-04 | 2.8E-03 |  5.4  6.3E-02  OK|
 +----------------------+------+---------+---------+------------------+
 | K-TurbKE             | 0.95 | 2.7E-04 | 2.0E-03 |  5.4  4.7E-02  OK|
 | E-Diss.K             | 0.95 | 2.9E-04 | 8.0E-03 |  7.2  1.7E-02  OK|
 +----------------------+------+---------+---------+------------------+

 ======================================================================
 OUTER LOOP ITERATION =  394 (   33) CPU SECONDS = 2.873E+02 (3.808E+01)
 ----------------------------------------------------------------------
 |       Equation       | Rate | RMS Res | Max Res |  Linear Solution |
 +----------------------+------+---------+---------+------------------+
 | U-Mom                | 0.95 | 8.8E-05 | 3.3E-03 |       2.2E-02  OK|
 | V-Mom                | 0.95 | 8.6E-05 | 2.8E-03 |       2.6E-02  OK|
 | W-Mom                | 0.91 | 6.8E-05 | 1.6E-03 |       4.5E-02  OK|
 | P-Mass               | 0.96 | 1.8E-05 | 1.5E-04 | 13.5  4.5E-02  OK|
 +----------------------+------+---------+---------+------------------+
 | H-Energy             | 0.96 | 1.6E-04 | 2.8E-03 |  5.4  6.3E-02  OK|
 +----------------------+------+---------+---------+------------------+
 | K-TurbKE             | 0.94 | 2.6E-04 | 2.0E-03 |  5.4  4.7E-02  OK|
 | E-Diss.K             | 0.95 | 2.8E-04 | 7.7E-03 |  7.2  1.7E-02  OK|
 +----------------------+------+---------+---------+------------------+

 ======================================================================
 OUTER LOOP ITERATION =  395 (   34) CPU SECONDS = 2.884E+02 (3.914E+01)
 ----------------------------------------------------------------------
 |       Equation       | Rate | RMS Res | Max Res |  Linear Solution |
 +----------------------+------+---------+---------+------------------+
 | U-Mom                | 0.95 | 8.4E-05 | 2.9E-03 |       2.2E-02  OK|
 | V-Mom                | 0.96 | 8.3E-05 | 2.6E-03 |       2.5E-02  OK|
 | W-Mom                | 0.92 | 6.2E-05 | 1.5E-03 |       4.7E-02  OK|
 | P-Mass               | 0.96 | 1.7E-05 | 1.5E-04 | 13.5  4.6E-02  OK|
 +----------------------+------+---------+---------+------------------+
 | H-Energy             | 0.96 | 1.5E-04 | 2.6E-03 |  5.4  6.3E-02  OK|
 +----------------------+------+---------+---------+------------------+
 | K-TurbKE             | 0.94 | 2.4E-04 | 1.9E-03 |  5.4  4.6E-02  OK|
 | E-Diss.K             | 0.95 | 2.7E-04 | 7.4E-03 |  7.2  1.6E-02  OK|
 +----------------------+------+---------+---------+------------------+

 ======================================================================
 |                        Timescale Information                       |
 ----------------------------------------------------------------------
 |       Equation       |         Type          |      Timescale      |
 +----------------------+-----------------------+---------------------+
 | U-Mom                | Auto Timescale        |     1.68141E-01     |
 | V-Mom                | Auto Timescale        |     1.68141E-01     |
 | W-Mom                | Auto Timescale        |     1.68141E-01     |
 +----------------------+-----------------------+---------------------+
 | H-Energy             | Auto Timescale        |     1.68141E-01     |
 +----------------------+-----------------------+---------------------+
 | K-TurbKE             | Auto Timescale        |     1.68141E-01     |
 | E-Diss.K             | Auto Timescale        |     1.68141E-01     |
 +----------------------+-----------------------+---------------------+

 ======================================================================
 OUTER LOOP ITERATION =  396 (   35) CPU SECONDS = 2.895E+02 (4.020E+01)
 ----------------------------------------------------------------------
 |       Equation       | Rate | RMS Res | Max Res |  Linear Solution |
 +----------------------+------+---------+---------+------------------+
 | U-Mom                | 0.96 | 8.0E-05 | 2.4E-03 |       2.3E-02  OK|
 | V-Mom                | 0.96 | 8.0E-05 | 2.4E-03 |       2.4E-02  OK|
 | W-Mom                | 0.92 | 5.7E-05 | 1.4E-03 |       4.8E-02  OK|
 | P-Mass               | 0.97 | 1.6E-05 | 1.4E-04 | 13.5  4.6E-02  OK|
 +----------------------+------+---------+---------+------------------+
 | H-Energy             | 0.96 | 1.5E-04 | 2.5E-03 |  5.4  6.2E-02  OK|
 +----------------------+------+---------+---------+------------------+
 | K-TurbKE             | 0.94 | 2.3E-04 | 1.8E-03 |  5.4  4.5E-02  OK|
 | E-Diss.K             | 0.95 | 2.5E-04 | 7.0E-03 |  7.2  1.6E-02  OK|
 +----------------------+------+---------+---------+------------------+

 ======================================================================
 OUTER LOOP ITERATION =  397 (   36) CPU SECONDS = 2.905E+02 (4.127E+01)
 ----------------------------------------------------------------------
 |       Equation       | Rate | RMS Res | Max Res |  Linear Solution |
 +----------------------+------+---------+---------+------------------+
 | U-Mom                | 0.96 | 7.7E-05 | 2.0E-03 |       2.4E-02  OK|
 | V-Mom                | 0.97 | 7.7E-05 | 2.2E-03 |       2.3E-02  OK|
 | W-Mom                | 0.92 | 5.3E-05 | 1.3E-03 |       4.9E-02  OK|
 | P-Mass               | 0.97 | 1.6E-05 | 1.3E-04 | 13.5  4.7E-02  OK|
 +----------------------+------+---------+---------+------------------+
 | H-Energy             | 0.96 | 1.4E-04 | 2.4E-03 |  5.4  6.1E-02  OK|
 +----------------------+------+---------+---------+------------------+
 | K-TurbKE             | 0.94 | 2.1E-04 | 1.8E-03 |  5.4  4.5E-02  OK|
 | E-Diss.K             | 0.96 | 2.4E-04 | 6.9E-03 |  7.2  1.6E-02  OK|
 +----------------------+------+---------+---------+------------------+

 ======================================================================
 OUTER LOOP ITERATION =  398 (   37) CPU SECONDS = 2.916E+02 (4.234E+01)
 ----------------------------------------------------------------------
 |       Equation       | Rate | RMS Res | Max Res |  Linear Solution |
 +----------------------+------+---------+---------+------------------+
 | U-Mom                | 0.96 | 7.4E-05 | 1.9E-03 |       2.5E-02  OK|
 | V-Mom                | 0.97 | 7.5E-05 | 2.1E-03 |       2.3E-02  OK|
 | W-Mom                | 0.93 | 4.9E-05 | 1.2E-03 |       5.1E-02  OK|
 | P-Mass               | 0.97 | 1.5E-05 | 1.3E-04 | 13.5  4.8E-02  OK|
 +----------------------+------+---------+---------+------------------+
 | H-Energy             | 0.96 | 1.3E-04 | 2.3E-03 |  5.4  6.1E-02  OK|
 +----------------------+------+---------+---------+------------------+
 | K-TurbKE             | 0.95 | 2.0E-04 | 1.7E-03 |  5.4  4.4E-02  OK|
 | E-Diss.K             | 0.97 | 2.3E-04 | 6.7E-03 |  7.2  1.6E-02  OK|
 +----------------------+------+---------+---------+------------------+

 ======================================================================
 OUTER LOOP ITERATION =  399 (   38) CPU SECONDS = 2.927E+02 (4.344E+01)
 ----------------------------------------------------------------------
 |       Equation       | Rate | RMS Res | Max Res |  Linear Solution |
 +----------------------+------+---------+---------+------------------+
 | U-Mom                | 0.96 | 7.1E-05 | 1.7E-03 |       2.5E-02  OK|
 | V-Mom                | 0.97 | 7.3E-05 | 2.0E-03 |       2.3E-02  OK|
 | W-Mom                | 0.94 | 4.6E-05 | 1.1E-03 |       5.3E-02  OK|
 | P-Mass               | 0.97 | 1.5E-05 | 1.3E-04 | 13.5  4.9E-02  OK|
 +----------------------+------+---------+---------+------------------+
 | H-Energy             | 0.96 | 1.3E-04 | 2.2E-03 |  5.4  6.0E-02  OK|
 +----------------------+------+---------+---------+------------------+
 | K-TurbKE             | 0.95 | 1.9E-04 | 1.7E-03 |  5.4  4.4E-02  OK|
 | E-Diss.K             | 0.97 | 2.3E-04 | 6.5E-03 |  7.2  1.6E-02  OK|
 +----------------------+------+---------+---------+------------------+

 ======================================================================
 OUTER LOOP ITERATION =  400 (   39) CPU SECONDS = 2.938E+02 (4.453E+01)
 ----------------------------------------------------------------------
 |       Equation       | Rate | RMS Res | Max Res |  Linear Solution |
 +----------------------+------+---------+---------+------------------+
 | U-Mom                | 0.96 | 6.8E-05 | 1.6E-03 |       2.5E-02  OK|
 | V-Mom                | 0.98 | 7.1E-05 | 1.9E-03 |       2.3E-02  OK|
 | W-Mom                | 0.95 | 4.4E-05 | 1.1E-03 |       5.5E-02  OK|
 | P-Mass               | 0.98 | 1.5E-05 | 1.2E-04 | 13.5  5.0E-02  OK|
 +----------------------+------+---------+---------+------------------+
 | H-Energy             | 0.96 | 1.2E-04 | 2.1E-03 |  5.4  5.8E-02  OK|
 +----------------------+------+---------+---------+------------------+
 | K-TurbKE             | 0.95 | 1.8E-04 | 1.7E-03 |  5.4  4.4E-02  OK|
 | E-Diss.K             | 0.97 | 2.2E-04 | 6.3E-03 |  7.2  1.6E-02  OK|
 +----------------------+------+---------+---------+------------------+

 ======================================================================
 |                        Timescale Information                       |
 ----------------------------------------------------------------------
 |       Equation       |         Type          |      Timescale      |
 +----------------------+-----------------------+---------------------+
 | U-Mom                | Auto Timescale        |     1.65942E-01     |
 | V-Mom                | Auto Timescale        |     1.65942E-01     |
 | W-Mom                | Auto Timescale        |     1.65942E-01     |
 +----------------------+-----------------------+---------------------+
 | H-Energy             | Auto Timescale        |     1.65942E-01     |
 +----------------------+-----------------------+---------------------+
 | K-TurbKE             | Auto Timescale        |     1.65942E-01     |
 | E-Diss.K             | Auto Timescale        |     1.65942E-01     |
 +----------------------+-----------------------+---------------------+

 ======================================================================
 OUTER LOOP ITERATION =  401 (   40) CPU SECONDS = 2.949E+02 (4.568E+01)
 ----------------------------------------------------------------------
 |       Equation       | Rate | RMS Res | Max Res |  Linear Solution |
 +----------------------+------+---------+---------+------------------+
 | U-Mom                | 0.97 | 6.6E-05 | 1.5E-03 |       2.4E-02  OK|
 | V-Mom                | 0.98 | 6.9E-05 | 1.8E-03 |       2.3E-02  OK|
 | W-Mom                | 0.96 | 4.3E-05 | 9.9E-04 |       5.7E-02  OK|
 | P-Mass               | 0.98 | 1.4E-05 | 1.2E-04 | 13.5  4.9E-02  OK|
 +----------------------+------+---------+---------+------------------+
 | H-Energy             | 0.96 | 1.2E-04 | 2.0E-03 |  5.4  5.6E-02  OK|
 +----------------------+------+---------+---------+------------------+
 | K-TurbKE             | 0.95 | 1.7E-04 | 1.6E-03 |  5.4  4.3E-02  OK|
 | E-Diss.K             | 0.96 | 2.1E-04 | 6.3E-03 |  7.2  1.5E-02  OK|
 +----------------------+------+---------+---------+------------------+

 ======================================================================
 OUTER LOOP ITERATION =  402 (   41) CPU SECONDS = 2.961E+02 (4.679E+01)
 ----------------------------------------------------------------------
 |       Equation       | Rate | RMS Res | Max Res |  Linear Solution |
 +----------------------+------+---------+---------+------------------+
 | U-Mom                | 0.97 | 6.4E-05 | 1.5E-03 |       2.4E-02  OK|
 | V-Mom                | 0.98 | 6.8E-05 | 1.7E-03 |       2.3E-02  OK|
 | W-Mom                | 0.97 | 4.1E-05 | 9.3E-04 |       5.8E-02  OK|
 | P-Mass               | 0.98 | 1.4E-05 | 1.1E-04 | 13.5  5.0E-02  OK|
 +----------------------+------+---------+---------+------------------+
 | H-Energy             | 0.96 | 1.1E-04 | 1.9E-03 |  5.4  5.5E-02  OK|
 +----------------------+------+---------+---------+------------------+
 | K-TurbKE             | 0.95 | 1.6E-04 | 1.6E-03 |  5.4  4.3E-02  OK|
 | E-Diss.K             | 0.96 | 2.0E-04 | 6.2E-03 |  7.2  1.5E-02  OK|
 +----------------------+------+---------+---------+------------------+

 ======================================================================
 OUTER LOOP ITERATION =  403 (   42) CPU SECONDS = 2.972E+02 (4.790E+01)
 ----------------------------------------------------------------------
 |       Equation       | Rate | RMS Res | Max Res |  Linear Solution |
 +----------------------+------+---------+---------+------------------+
 | U-Mom                | 0.98 | 6.3E-05 | 1.4E-03 |       2.4E-02  OK|
 | V-Mom                | 0.98 | 6.6E-05 | 1.6E-03 |       2.3E-02  OK|
 | W-Mom                | 0.98 | 4.1E-05 | 8.8E-04 |       6.0E-02  OK|
 | P-Mass               | 0.98 | 1.4E-05 | 1.1E-04 | 13.5  5.1E-02  OK|
 +----------------------+------+---------+---------+------------------+
 | H-Energy             | 0.96 | 1.1E-04 | 1.8E-03 |  5.4  5.4E-02  OK|
 +----------------------+------+---------+---------+------------------+
 | K-TurbKE             | 0.96 | 1.6E-04 | 1.5E-03 |  5.4  4.3E-02  OK|
 | E-Diss.K             | 0.96 | 1.9E-04 | 6.0E-03 |  7.2  1.6E-02  OK|
 +----------------------+------+---------+---------+------------------+

 ======================================================================
 OUTER LOOP ITERATION =  404 (   43) CPU SECONDS = 2.982E+02 (4.895E+01)
 ----------------------------------------------------------------------
 |       Equation       | Rate | RMS Res | Max Res |  Linear Solution |
 +----------------------+------+---------+---------+------------------+
 | U-Mom                | 0.98 | 6.2E-05 | 1.3E-03 |       2.4E-02  OK|
 | V-Mom                | 0.98 | 6.5E-05 | 1.5E-03 |       2.4E-02  OK|
 | W-Mom                | 0.99 | 4.1E-05 | 9.1E-04 |       6.2E-02  OK|
 | P-Mass               | 0.98 | 1.3E-05 | 1.1E-04 | 13.5  5.1E-02  OK|
 +----------------------+------+---------+---------+------------------+
 | H-Energy             | 0.96 | 1.0E-04 | 1.7E-03 |  5.4  5.3E-02  OK|
 +----------------------+------+---------+---------+------------------+
 | K-TurbKE             | 0.96 | 1.5E-04 | 1.5E-03 |  5.4  4.3E-02  OK|
 | E-Diss.K             | 0.96 | 1.9E-04 | 5.7E-03 |  7.2  1.6E-02  OK|
 +----------------------+------+---------+---------+------------------+

 ======================================================================
 OUTER LOOP ITERATION =  405 (   44) CPU SECONDS = 2.993E+02 (5.009E+01)
 ----------------------------------------------------------------------
 |       Equation       | Rate | RMS Res | Max Res |  Linear Solution |
 +----------------------+------+---------+---------+------------------+
 | U-Mom                | 0.99 | 6.1E-05 | 1.2E-03 |       2.3E-02  OK|
 | V-Mom                | 0.98 | 6.4E-05 | 1.4E-03 |       2.4E-02  OK|
 | W-Mom                | 1.00 | 4.1E-05 | 9.4E-04 |       6.5E-02  OK|
 | P-Mass               | 0.98 | 1.3E-05 | 1.1E-04 | 13.5  5.1E-02  OK|
 +----------------------+------+---------+---------+------------------+
 | H-Energy             | 0.97 | 1.0E-04 | 1.6E-03 |  5.4  5.2E-02  OK|
 +----------------------+------+---------+---------+------------------+
 | K-TurbKE             | 0.96 | 1.4E-04 | 1.5E-03 |  5.4  4.2E-02  OK|
 | E-Diss.K             | 0.96 | 1.8E-04 | 5.3E-03 |  7.2  1.6E-02  OK|
 +----------------------+------+---------+---------+------------------+

 ======================================================================
 |                        Timescale Information                       |
 ----------------------------------------------------------------------
 |       Equation       |         Type          |      Timescale      |
 +----------------------+-----------------------+---------------------+
 | U-Mom                | Auto Timescale        |     1.63878E-01     |
 | V-Mom                | Auto Timescale        |     1.63878E-01     |
 | W-Mom                | Auto Timescale        |     1.63878E-01     |
 +----------------------+-----------------------+---------------------+
 | H-Energy             | Auto Timescale        |     1.63878E-01     |
 +----------------------+-----------------------+---------------------+
 | K-TurbKE             | Auto Timescale        |     1.63878E-01     |
 | E-Diss.K             | Auto Timescale        |     1.63878E-01     |
 +----------------------+-----------------------+---------------------+

 ======================================================================
 OUTER LOOP ITERATION =  406 (   45) CPU SECONDS = 3.005E+02 (5.122E+01)
 ----------------------------------------------------------------------
 |       Equation       | Rate | RMS Res | Max Res |  Linear Solution |
 +----------------------+------+---------+---------+------------------+
 | U-Mom                | 1.00 | 6.1E-05 | 1.2E-03 |       2.3E-02  OK|
 | V-Mom                | 0.98 | 6.3E-05 | 1.3E-03 |       2.4E-02  OK|
 | W-Mom                | 1.00 | 4.1E-05 | 9.8E-04 |       6.6E-02  OK|
 | P-Mass               | 0.98 | 1.3E-05 | 1.1E-04 | 13.5  5.1E-02  OK|
 +----------------------+------+---------+---------+------------------+
 | H-Energy             | 0.97 | 9.7E-05 | 1.5E-03 |  5.4  5.0E-02  OK|
 +----------------------+------+---------+---------+------------------+
 | K-TurbKE             | 0.96 | 1.4E-04 | 1.5E-03 |  5.4  4.2E-02  OK|
 | E-Diss.K             | 0.96 | 1.7E-04 | 4.9E-03 |  7.2  1.6E-02  OK|
 +----------------------+------+---------+---------+------------------+
                   
 CFD Solver finished: Thu Dec  6 14:56:32 2018
 CFD Solver wall clock seconds: 4.9044E+01

 ======================================================================
              Termination and Interrupt Condition Summary
 ======================================================================
    
 CFD Solver: All target criteria reached
   (Equation residuals)

 ======================================================================
              Boundary Flow and Total Source Term Summary
 ======================================================================

 +--------------------------------------------------------------------+
 |                               U-Mom                                |
 +--------------------------------------------------------------------+
 Boundary         : Default Domain Default                  4.9345E+04
 Boundary         : in1                                     5.4404E-05
 Boundary         : in2                                    -4.8998E+04
 Boundary         : out                                    -3.5923E+02
                                                           -----------
 Domain Imbalance :                                        -1.1266E+01

 +--------------------------------------------------------------------+
 |                               V-Mom                                |
 +--------------------------------------------------------------------+
 Boundary         : Default Domain Default                 -1.9444E+04
 Boundary         : in1                                     6.8368E+04
 Boundary         : in2                                    -4.8998E+04
 Boundary         : out                                     9.9868E+01
                                                           -----------
 Domain Imbalance :                                         2.6411E+01

 +--------------------------------------------------------------------+
 |                               W-Mom                                |
 +--------------------------------------------------------------------+
 Boundary         : Default Domain Default                 -1.2252E+04
 Boundary         : in1                                    -1.8408E-05
 Boundary         : in2                                     2.0953E-03
 Boundary         : out                                     1.2288E+04
                                                           -----------
 Domain Imbalance :                                         3.5975E+01

 +--------------------------------------------------------------------+
 |                               P-Mass                               |
 +--------------------------------------------------------------------+
 Boundary         : in1                                     1.5000E+03
 Boundary         : in2                                     1.5000E+03
 Boundary         : out                                    -2.9998E+03
                                                           -----------
 Domain Imbalance :                                         1.9287E-01

 +--------------------------------------------------------------------+
 |                              H-Energy                              |
 +--------------------------------------------------------------------+
 Boundary         : in1                                     1.0569E+08
 Boundary         : in2                                    -8.2484E+07
 Boundary         : out                                    -2.4080E+07
                                                           -----------
 Domain Imbalance :                                        -8.7130E+05


 +--------------------------------------------------------------------+
 |                     Normalised Imbalance Summary                   |
 +--------------------------------------------------------------------+
 |       Equation       |      Maximum Flow     |     Imbalance (%)   |
 +--------------------------------------------------------------------+
 | U-Mom                |       6.8368E+04      |       -0.0165       |
 | V-Mom                |       6.8368E+04      |        0.0386       |
 | W-Mom                |       6.8368E+04      |        0.0526       |
 | P-Mass               |       2.9998E+03      |        0.0064       |
 +----------------------+-----------------------+---------------------+
 | H-Energy             |       1.0569E+08      |       -0.8244       |
 +----------------------+-----------------------+---------------------+

 ======================================================================
                     Wall Force and Moment Summary
 ======================================================================
                                                                          
 Notes:
 1. Pressure integrals exclude the reference pressure.  To include
    it, set the expert parameter 'include pref in forces = t'.


 +--------------------------------------------------------------------+
 |                      Pressure Force On Walls                       |
 +--------------------------------------------------------------------+
                                    X-Comp.      Y-Comp.      Z-Comp.

 Domain Group: Default Domain

 Default Domain Default          -4.9444E+04   1.9340E+04   1.2336E+04
                                  -----------  -----------  -----------
 Domain Group Totals :           -4.9444E+04   1.9340E+04   1.2336E+04


 +--------------------------------------------------------------------+
 |                       Viscous Force On Walls                       |
 +--------------------------------------------------------------------+
                                    X-Comp.      Y-Comp.      Z-Comp.

 Domain Group: Default Domain

 Default Domain Default           9.8165E+01   1.0419E+02  -8.5838E+01
                                  -----------  -----------  -----------
 Domain Group Totals :            9.8165E+01   1.0419E+02  -8.5838E+01


 +--------------------------------------------------------------------+
 |                      Pressure Moment On Walls                      |
 +--------------------------------------------------------------------+
                                    X-Comp.      Y-Comp.      Z-Comp.

 Domain Group: Default Domain

 Default Domain Default          -2.0023E+04  -4.8877E+04  -1.1917E+05
                                  -----------  -----------  -----------
 Domain Group Totals :           -2.0023E+04  -4.8877E+04  -1.1917E+05


 +--------------------------------------------------------------------+
 |                       Viscous Moment On Walls                      |
 +--------------------------------------------------------------------+
                                    X-Comp.      Y-Comp.      Z-Comp.

 Domain Group: Default Domain

 Default Domain Default           4.5085E+01   2.8852E+01  -6.7915E+03
                                  -----------  -----------  -----------
 Domain Group Totals :            4.5085E+01   2.8852E+01  -6.7915E+03


 +--------------------------------------------------------------------+
 |                   Locations of Maximum Residuals                   |
 +--------------------------------------------------------------------+
 |       Equation       |      Domain Name      |     Node Number     |
 +--------------------------------------------------------------------+
 | U-Mom                | Default Domain        |          24739      |
 | V-Mom                | Default Domain        |          24739      |
 | W-Mom                | Default Domain        |          24972      |
 | P-Mass               | Default Domain        |          24734      |
 +----------------------+-----------------------+---------------------+
 | H-Energy             | Default Domain        |          24985      |
 +----------------------+-----------------------+---------------------+
 | K-TurbKE             | Default Domain        |           3115      |
 | E-Diss.K             | Default Domain        |          26298      |
 +----------------------+-----------------------+---------------------+

 ======================================================================
 |                     False Transient Information                    |
 +--------------------------------------------------------------------+
 |       Equation       |         Type          | Elapsed Pseudo-Time |
 +--------------------------------------------------------------------+
 | U-Mom                | Auto Timescale        |     7.81722E+00     |
 | V-Mom                | Auto Timescale        |     7.81722E+00     |
 | W-Mom                | Auto Timescale        |     7.81722E+00     |
 +----------------------+-----------------------+---------------------+
 | H-Energy             | Auto Timescale        |     7.81722E+00     |
 +----------------------+-----------------------+---------------------+
 | K-TurbKE             | Auto Timescale        |     7.81722E+00     |
 | E-Diss.K             | Auto Timescale        |     7.81722E+00     |
 +----------------------+-----------------------+---------------------+

 +--------------------------------------------------------------------+
 |                     Average Scale Information                      |
 +--------------------------------------------------------------------+

 Domain Name : Default Domain
     Global Length                                         = 3.2201E+00
     Minimum Extent                                        = 4.0000E+00
     Maximum Extent                                        = 5.1811E+00
     Density                                               = 9.9700E+02
     Dynamic Viscosity                                     = 8.8990E-04
     Velocity                                              = 6.1381E+00
     Advection Time                                        = 5.2461E-01
     Reynolds Number                                       = 2.2144E+07
     Thermal Conductivity                                  = 6.0690E-01
     Specific Heat Capacity at Constant Pressure           = 4.1817E+03
     Prandtl Number                                        = 6.1316E+00
     Temperature Range                                     = 3.0024E+01

 +--------------------------------------------------------------------+
 |                     Variable Range Information                     |
 +--------------------------------------------------------------------+

 Domain Name : Default Domain
 +--------------------------------------------------------------------+
 |      Variable Name                         |    min    |    max    |
 +--------------------------------------------------------------------+
 | Density                                    |  9.97E+02 |  9.97E+02 |
 | Specific Heat Capacity at Constant Pressure|  4.18E+03 |  4.18E+03 |
 | Dynamic Viscosity                          |  8.90E-04 |  8.90E-04 |
 | Thermal Conductivity                       |  6.07E-01 |  6.07E-01 |
 | Static Entropy                             | -1.89E+02 |  2.30E+02 |
 | Velocity u                                 | -7.29E+00 |  7.39E+00 |
 | Velocity v                                 | -7.70E+00 |  7.49E+00 |
 | Velocity w                                 | -5.75E+00 |  2.15E+00 |
 | Pressure                                   | -1.15E+04 |  8.74E+04 |
 | Turbulence Kinetic Energy                  |  1.06E-04 |  5.06E+00 |
 | Turbulence Eddy Dissipation                |  3.15E-04 |  3.18E+02 |
 | Eddy Viscosity                             |  1.31E-03 |  3.50E+02 |
 | Temperature                                |  2.85E+02 |  3.15E+02 |
 | Static Enthalpy                            | -5.50E+04 |  7.05E+04 |
 +--------------------------------------------------------------------+

 +--------------------------------------------------------------------+
 |               CPU Requirements of Numerical Solution               |
 +--------------------------------------------------------------------+

 Subsystem Name                  Discretization       Linear Solution
                                (secs.   %total)     (secs.   %total) 
 ----------------------------------------------------------------------
 Momentum and Mass              1.73E+01  31.3 %     5.35E+00   9.7 %
 Heat Transfer                  5.72E+00  10.3 %     1.84E+00   3.3 %
 TurbKE and Diss.K              8.87E+00  16.0 %     4.16E+00   7.5 %
                                -------- -------     --------  ------
 Subsystem Summary              3.19E+01  57.6 %     1.14E+01  20.5 %

 File Reading                   4.30E-02    0.1 %
 Variable Updates               5.52E+00   10.0 %
 File Writing                   3.73E-01    0.7 %
 Miscellaneous                  6.14E+00   11.1 %
                                --------
 Total                          5.53E+01

 +--------------------------------------------------------------------+
 |                   Job Information at End of Run                    |
 +--------------------------------------------------------------------+

 Host computer:  ENPC-LAB137 (PID:10300)

 Job finished:   Thu Dec  6 14:56:35 2018

 Total wall clock time: 5.533E+01 seconds
             or: (          0:         0:         0:    55.325 )
                 (       Days:     Hours:   Minutes:   Seconds )

End of solution stage.

 +--------------------------------------------------------------------+
 | The results from this run of the ANSYS CFX Solver have been        |
 | written to                                                         |
 | H:/dos/CFD/CW/CFD-Static-Mixer/StaticMixerDX_pending/dp7_CFX_Solu- |
 | tion/Fluid Flow CFX_009.res                                        |
 +--------------------------------------------------------------------+


 +--------------------------------------------------------------------+
 | For CFX runs launched from Workbench, the final locations of       |
 | directories and files generated may differ from those shown.       |
 +--------------------------------------------------------------------+


This run of the ANSYS CFX Solver has finished.
