 This run of the CFX Release 19.1 Solver started at 14:34:00 on 06 Dec
 2018 by user jc2182 on ENPC-LAB137 (intel_xeon64.sse2_winnt) using the
 command:
 
  "C:\Program Files\ANSYS Inc\v191\CFX\bin\perllib\cfx5solve.pl" -batch
    -ccl runInput.ccl -fullname "Fluid Flow CFX_009"
 
 Release 19.1
 
  Point Releases and Patches installed:
  ANSYS, Inc. Products Release 19.1
  SpaceClaim Release 19.1
  Autodyn Release 19.1
  LS-DYNA Release 19.1
  CFD-Post only Release 19.1
  CFX (includes CFD-Post) Release 19.1
  Chemkin Release 19.1
  EnSight Release 19.1
  FENSAP-ICE Release 19.1
  Fluent (includes CFD-Post) Release 19.1
  Forte Release 19.1
  Polyflow (includes CFD-Post) Release 19.1
  TurboGrid Release 19.1
  ICEM CFD Release 19.1
  Customization Files for User Programmable Features Release 19.1
  Mechanical Products Release 19.1
  Icepak (includes CFD-Post) Release 19.1
  Remote Solve Manager Standalone Services Release 19.1
  ACIS Geometry Interface Release 19.1
  Catia, Version 5 Geometry Interface Release 19.1
  NX Geometry Interface Release 19.1
  Parasolid Geometry Interface  Release 19.1
  ANSYS, Inc. License Manager Release 19.1
 
 Setting up CFX Solver run ...
 
 
 +--------------------------------------------------------------------+
 |                                                                    |
 |                    CFX Command Language for Run                    |
 |                                                                    |
 +--------------------------------------------------------------------+
 
 LIBRARY:
   CEL:
     EXPRESSIONS:
       inMassFlow = 1500 [kg s^-1]
     END
   END
   MATERIAL: Water
     Material Description = Water (liquid)
     Material Group = Water Data, Constant Property Liquids
     Option = Pure Substance
     Thermodynamic State = Liquid
     PROPERTIES:
       Option = General Material
       EQUATION OF STATE:
         Density = 997.0 [kg m^-3]
         Molar Mass = 18.02 [kg kmol^-1]
         Option = Value
       END
       SPECIFIC HEAT CAPACITY:
         Option = Value
         Specific Heat Capacity = 4181.7 [J kg^-1 K^-1]
         Specific Heat Type = Constant Pressure
       END
       REFERENCE STATE:
         Option = Specified Point
         Reference Pressure = 1 [atm]
         Reference Specific Enthalpy = 0.0 [J/kg]
         Reference Specific Entropy = 0.0 [J/kg/K]
         Reference Temperature = 25 [C]
       END
       DYNAMIC VISCOSITY:
         Dynamic Viscosity = 8.899E-4 [kg m^-1 s^-1]
         Option = Value
       END
       THERMAL CONDUCTIVITY:
         Option = Value
         Thermal Conductivity = 0.6069 [W m^-1 K^-1]
       END
       ABSORPTION COEFFICIENT:
         Absorption Coefficient = 1.0 [m^-1]
         Option = Value
       END
       SCATTERING COEFFICIENT:
         Option = Value
         Scattering Coefficient = 0.0 [m^-1]
       END
       REFRACTIVE INDEX:
         Option = Value
         Refractive Index = 1.0 [m m^-1]
       END
       THERMAL EXPANSIVITY:
         Option = Value
         Thermal Expansivity = 2.57E-04 [K^-1]
       END
     END
   END
 END
 FLOW: Flow Analysis 1
   SOLUTION UNITS:
     Angle Units = [rad]
     Length Units = [m]
     Mass Units = [kg]
     Solid Angle Units = [sr]
     Temperature Units = [K]
     Time Units = [s]
   END
   ANALYSIS TYPE:
     Option = Steady State
     EXTERNAL SOLVER COUPLING:
       Option = None
     END
   END
   DOMAIN: Default Domain
     Coord Frame = Coord 0
     Domain Type = Fluid
     Location = B17
     BOUNDARY: Default Domain Default
       Boundary Type = WALL
       Location = F12.17,F14.17,F16.17,F19.17,F20.17,F21.17
       BOUNDARY CONDITIONS:
         HEAT TRANSFER:
           Option = Adiabatic
         END
         MASS AND MOMENTUM:
           Option = No Slip Wall
         END
         WALL ROUGHNESS:
           Option = Smooth Wall
         END
       END
     END
     BOUNDARY: in1
       Boundary Type = INLET
       Location = in1
       BOUNDARY CONDITIONS:
         FLOW DIRECTION:
           Option = Normal to Boundary Condition
         END
         FLOW REGIME:
           Option = Subsonic
         END
         HEAT TRANSFER:
           Option = Static Temperature
           Static Temperature = 315 [K]
         END
         MASS AND MOMENTUM:
           Mass Flow Rate = inMassFlow
           Mass Flow Rate Area = As Specified
           Option = Mass Flow Rate
         END
         TURBULENCE:
           Option = Medium Intensity and Eddy Viscosity Ratio
         END
       END
     END
     BOUNDARY: in2
       Boundary Type = INLET
       Location = in2
       BOUNDARY CONDITIONS:
         FLOW DIRECTION:
           Option = Normal to Boundary Condition
         END
         FLOW REGIME:
           Option = Subsonic
         END
         HEAT TRANSFER:
           Option = Static Temperature
           Static Temperature = 285 [K]
         END
         MASS AND MOMENTUM:
           Mass Flow Rate = inMassFlow
           Mass Flow Rate Area = As Specified
           Option = Mass Flow Rate
         END
         TURBULENCE:
           Option = Medium Intensity and Eddy Viscosity Ratio
         END
       END
     END
     BOUNDARY: out
       Boundary Type = OUTLET
       Location = out
       BOUNDARY CONDITIONS:
         FLOW REGIME:
           Option = Subsonic
         END
         MASS AND MOMENTUM:
           Option = Static Pressure
           Relative Pressure = 0 [Pa]
         END
       END
     END
     DOMAIN MODELS:
       BUOYANCY MODEL:
         Option = Non Buoyant
       END
       DOMAIN MOTION:
         Option = Stationary
       END
       MESH DEFORMATION:
         Option = None
       END
       REFERENCE PRESSURE:
         Reference Pressure = 1 [atm]
       END
     END
     FLUID DEFINITION: Fluid 1
       Material = Water
       Option = Material Library
       MORPHOLOGY:
         Option = Continuous Fluid
       END
     END
     FLUID MODELS:
       COMBUSTION MODEL:
         Option = None
       END
       HEAT TRANSFER MODEL:
         Option = Thermal Energy
       END
       THERMAL RADIATION MODEL:
         Option = None
       END
       TURBULENCE MODEL:
         Option = k epsilon
       END
       TURBULENT WALL FUNCTIONS:
         Option = Scalable
       END
     END
   END
   OUTPUT CONTROL:
     RESULTS:
       File Compression Level = Default
       Option = Standard
     END
   END
   SOLVER CONTROL:
     Turbulence Numerics = High Resolution
     ADVECTION SCHEME:
       Option = High Resolution
     END
     CONVERGENCE CONTROL:
       Length Scale Option = Conservative
       Maximum Number of Iterations = 100
       Minimum Number of Iterations = 5
       Timescale Control = Auto Timescale
       Timescale Factor = 1.0
     END
     CONVERGENCE CRITERIA:
       Residual Target = 1.E-4
       Residual Type = RMS
     END
     DYNAMIC MODEL CONTROL:
       Global Dynamic Model Control = On
     END
   END
 END
 COMMAND FILE:
   Version = 19.1
   Results Version = 19.1
 END
 PARAMETERIZATION:
   INPUT FIELD: inMassFlow
     Expression Name = inMassFlow
     Method = Expression
   END
 END
 SIMULATION CONTROL:
   EXECUTION CONTROL:
     EXECUTABLE SELECTION:
       Double Precision = No
       Large Problem = No
     END
     INTERPOLATOR STEP CONTROL:
       Runtime Priority = Standard
       MEMORY CONTROL:
         Memory Allocation Factor = 1.0
       END
     END
     PARALLEL HOST LIBRARY:
       HOST DEFINITION: enpclab137
         Remote Host Name = ENPC-LAB137
         Host Architecture String = winnt-amd64
         Installation Root = C:\Program Files\ANSYS Inc\v%v\CFX
       END
     END
     PARTITIONER STEP CONTROL:
       Multidomain Option = Automatic
       Runtime Priority = Standard
       MEMORY CONTROL:
         Memory Allocation Factor = 1.0
       END
       PARTITION SMOOTHING:
         Maximum Partition Smoothing Sweeps = 100
         Option = Smooth
       END
       PARTITIONING TYPE:
         MeTiS Type = k-way
         Option = MeTiS
         Partition Size Rule = Automatic
       END
     END
     RUN DEFINITION:
       Run Mode = Full
       Solver Input File = Fluid Flow CFX.def
       Solver Results File = \
         H:/dos/CFD/CW/CFD-Static-Mixer/StaticMixerDX_pending/dp7_CFX_Solution\
         /Fluid Flow CFX_009.res
       INITIAL VALUES SPECIFICATION:
         INITIAL VALUES CONTROL:
           Use Mesh From = Solver Input File
           Continue History From = Workbench Initial Values
         END
         INITIAL VALUES: Workbench Initial Values
           Option = Results File
           File Name = Fluid Flow CFX_008.res
         END
       END
     END
     SOLVER STEP CONTROL:
       Runtime Priority = Standard
       MEMORY CONTROL:
         Memory Allocation Factor = 1.0
       END
       PARALLEL ENVIRONMENT:
         Number of Processes = 1
         Start Method = Serial
       END
     END
   END
 END
 
 
 +--------------------------------------------------------------------+
 |                                                                    |
 |                  Interpolation of Initial Values                   |
 |                                                                    |
 +--------------------------------------------------------------------+
 
 


 +--------------------------------------------------------------------+
 |                                                                    |
 |                    ANSYS(R) CFX(R) Interpolator                    |
 |                                                                    |
 | Release 19.1                                                       |
 | Build 19.1 2018-04-17T13:27:50.069000                              |
 | Tue Apr 17 15:02:11 GMTDT 2018                                     |
 |                                                                    |
 |                        Executable Attributes                       |
 |                                                                    |
 |           single-64bit-int32-archfort-optimised-std-lcomp          |
 |                                                                    |
 | (C) 1996-2018 ANSYS, Inc.                                          |
 |                                                                    |
 | All rights reserved. Unauthorized use, distribution or duplication |
 | is prohibited. This product is subject to U.S. laws governing      |
 | export and re-export. For full Legal Notice, see documentation.    |
 +--------------------------------------------------------------------+




 +--------------------------------------------------------------------+
 |                  Job Information at Start of Run                   |
 +--------------------------------------------------------------------+

 Run mode:       serial run

 Host computer:  ENPC-LAB137 (PID:9436)

 Job started:    Thu Dec  6 14:34:01 2018


 +--------------------------------------------------------------------+
 |        Memory Allocated for Run  (Actual usage may be less)        |
 +--------------------------------------------------------------------+

           | Real       | Integer    | Character | Logical  | Double
 ----------+------------+------------+-----------+----------+----------
 Mwords    |       1.23 |       1.56 |      0.20 |     0.01 |     0.05
 Mbytes    |       4.68 |       5.95 |      0.19 |     0.04 |     0.38
 ----------+------------+------------+-----------+----------+----------


 +--------------------------------------------------------------------+
 |                  Host Memory Information (Mbytes)                  |
 +--------------------------------------------------------------------+
 |          Host           |     System     |   Allocated    |   %    |
 +-------------------------+----------------+----------------+--------+
 | ENPC-LAB137             |     16240.97   |        11.23   |   0.07 |
 +-------------------------+----------------+----------------+--------+

 ======================================================================
               Interpolating Onto Domain "Default Domain"
 ======================================================================

 Total Number of Nodes in the Target Domain              =        16344
 Bounding Box Volume of the Target Mesh                  =  1.03623E+02


 Checking all source domains from the source file:
   Target mesh is different from domain "Default Domain".

 Searching for Candidate Source Domains:
   Domain "Default Domain"
     Number of Mapped Nodes                     =        14434 ( 88.3%)
     Bounding Box Overlap Volume                =  8.00000E+01 ( 77.2%)
   Setting Up Unmapped Nodes:
     Number of Unmapped Nodes                   =         1910 ( 11.7%)

 Start interpolation of variables: 
   Source Domain Name                                    Mapped Nodes
   Default Domain                                        14434 ( 88.3%)

 +--------------------------------------------------------------------+
 |                     Variable Range Information                     |
 +--------------------------------------------------------------------+
 +--------------------------------------------------------------------+
 |      Variable Name                         |    min    |    max    |
 +--------------------------------------------------------------------+
 | Thermal Conductivity                       |  6.07E-01 |  6.07E-01 |
 | Courant Number                             |  7.82E-01 |  2.89E+01 |
 | Density                                    |  9.97E+02 |  9.97E+02 |
 | Static Enthalpy                            | -5.40E+04 |  7.06E+04 |
 | Static Entropy                             | -1.85E+02 |  2.30E+02 |
 | Pressure                                   | -1.32E+04 |  9.99E+04 |
 | Specific Heat Capacity at Constant Pressure|  4.18E+03 |  4.18E+03 |
 | Specific Heat Capacity at Constant Volume  |  4.18E+03 |  4.18E+03 |
 | Turbulence Eddy Dissipation                |  2.23E-03 |  6.53E+01 |
 | Turbulence Eddy Frequency                  |  7.74E+00 |  1.03E+03 |
 | Temperature                                |  2.85E+02 |  3.15E+02 |
 | Turbulence Kinetic Energy                  |  4.28E-04 |  4.77E+00 |
 | Velocity                                   |  2.21E-01 |  8.73E+00 |
 | Dynamic Viscosity                          |  8.90E-04 |  8.90E-04 |
 | Eddy Viscosity                             |  2.02E-03 |  3.60E+02 |
 +--------------------------------------------------------------------+

 +--------------------------------------------------------------------+
 |                 CPU Requirements of Interpolation                  |
 +--------------------------------------------------------------------+

 Interpolation Step              Time    Percentage
                                (secs.   %total)
 ----------------------------------------------------------------------
 Tree Setup                     3.72E-01    9.9 %
 Interpolation                  1.35E+00   36.0 %
 Unmatched Nodes                8.10E-02    2.2 %
 Miscellaneous                  1.94E+00   51.9 %
                                --------
 Total                          3.74E+00

 +--------------------------------------------------------------------+
 |                   Job Information at End of Run                    |
 +--------------------------------------------------------------------+

 Host computer:  ENPC-LAB137 (PID:9436)

 Job finished:   Thu Dec  6 14:34:04 2018

 Total wall clock time: 3.745E+00 seconds
             or: (          0:         0:         0:     3.745 )
                 (       Days:     Hours:   Minutes:   Seconds )

 
 +--------------------------------------------------------------------+
 |                                                                    |
 |                               Solver                               |
 |                                                                    |
 +--------------------------------------------------------------------+
 



 +--------------------------------------------------------------------+
 |                                                                    |
 |                       ANSYS(R) CFX(R) Solver                       |
 |                                                                    |
 | Release 19.1                                                       |
 | Build 19.1 2018-04-17T13:27:50.069000                              |
 | Tue Apr 17 15:02:11 GMTDT 2018                                     |
 |                                                                    |
 |                        Executable Attributes                       |
 |                                                                    |
 |           single-64bit-int32-archfort-optimised-std-lcomp          |
 |                                                                    |
 | (C) 1996-2018 ANSYS, Inc.                                          |
 |                                                                    |
 | All rights reserved. Unauthorized use, distribution or duplication |
 | is prohibited. This product is subject to U.S. laws governing      |
 | export and re-export. For full Legal Notice, see documentation.    |
 +--------------------------------------------------------------------+




 +--------------------------------------------------------------------+
 |                  Job Information at Start of Run                   |
 +--------------------------------------------------------------------+

 Run mode:       serial run

 Host computer:  ENPC-LAB137 (PID:13880)

 Job started:    Thu Dec  6 14:34:07 2018

 +--------------------------------------------------------------------+
 |                        License Information                         |
 +--------------------------------------------------------------------+
 
 License Cap:    ANSYS CFX Solver (Max 128K Nodes)
 License Cap:    ANSYS CFX Solver (Introductory)
 License ID:     VIGO_campus_bath_ac_uk-SYSTEM-1456-879001


 +--------------------------------------------------------------------+
 |        Memory Allocated for Run  (Actual usage may be less)        |
 +--------------------------------------------------------------------+

           | Real       | Integer    | Character | Logical  | Double
 ----------+------------+------------+-----------+----------+----------
 Mwords    |      12.71 |       3.98 |      7.26 |     0.12 |     0.53
 Mbytes    |      48.47 |      15.19 |      6.92 |     0.46 |     4.06
 ----------+------------+------------+-----------+----------+----------


 +--------------------------------------------------------------------+
 |                  Host Memory Information (Mbytes)                  |
 +--------------------------------------------------------------------+
 |          Host           |     System     |   Allocated    |   %    |
 +-------------------------+----------------+----------------+--------+
 | ENPC-LAB137             |     16240.97   |        75.10   |   0.46 |
 +-------------------------+----------------+----------------+--------+


 +--------------------------------------------------------------------+
 |                     ****** Notice ******                           |
 | The Wall Heat Transfer Coefficient written to the results file for |
 | any turbulent phase with heat transfer is based on the turbulent   |
 | wall function coefficient. It is consistent with the Wall Heat Flux|
 | the wall temperature, and the Wall Adjacent Temperature            |
 | (near-wall temperature).  If you would like it to be based on a    |
 | user-specified bulk temperature instead, please set the expert     |
 | parameter "tbulk for htc = <value>".                               |
 +--------------------------------------------------------------------+

 +--------------------------------------------------------------------+
 |                      Topology Simplification                       |
 +--------------------------------------------------------------------+

 +--------------------------------------------------------------------+
 |                       ****** Warning ******                        |
 |                                                                    |
 | Topology simplification is activated with the following            |
 | restrictions:                                                      |
 |                                                                    |
 | - Mesh regions referenced only within User Fortran and NOT         |
 |   in the command file will cause the solver to stop.               |
 | - The solver will stop during any "Edit Run in Progress" step      |
 |   if new 2D regions are referenced.                                |
 +--------------------------------------------------------------------+

 +--------------------------------------------------------------------+
 |                          Mesh Statistics                           |
 +--------------------------------------------------------------------+
 | Domain Name          | Orthog. Angle | Exp. Factor  | Aspect Ratio |
 +----------------------+---------------+--------------+--------------+
 |                      | Minimum [deg] |   Maximum    |    Maximum   |
 +----------------------+---------------+--------------+--------------+
 | Default Domain       |       46.5 ok |         7 ok |         5 OK |
 +----------------------+---------------+--------------+--------------+
 |                      |  %!  %ok  %OK | %!  %ok  %OK | %!  %ok  %OK |
 +----------------------+---------------+--------------+--------------+
 | Default Domain       |   0   <1  100 |  0   <1  100 |  0    0  100 |
 +----------------------+---------------+--------------+--------------+

 Domain Name : Default Domain

     Total Number of Nodes                                =       16344

     Total Number of Elements                             =       87334
         Total Number of Tetrahedrons                     =       87334

     Total Number of Faces                                =        6704

 +--------------------------------------------------------------------+
 |      Initial Conditions Supplied by Fields in the Input Files      |
 +--------------------------------------------------------------------+

 Domain Name : Default Domain
     Courant Number
     Eddy Viscosity
     Pressure
     Specific Heat Capacity at Constant Pressure
     Static Enthalpy
     Static Entropy
     Temperature
     Turbulence Eddy Dissipation
     Turbulence Eddy Frequency
     Turbulence Kinetic Energy
     Velocity

 +--------------------------------------------------------------------+
 |                     Average Scale Information                      |
 +--------------------------------------------------------------------+

 Domain Name : Default Domain
     Global Length                                         = 3.2201E+00
     Minimum Extent                                        = 4.0000E+00
     Maximum Extent                                        = 5.1811E+00
     Density                                               = 9.9700E+02
     Dynamic Viscosity                                     = 8.8990E-04
     Velocity                                              = 6.8036E+00
     Advection Time                                        = 4.7329E-01
     Reynolds Number                                       = 2.4545E+07
     Thermal Conductivity                                  = 6.0690E-01
     Specific Heat Capacity at Constant Pressure           = 4.1817E+03
     Prandtl Number                                        = 6.1316E+00
     Temperature Range                                     = 2.9809E+01

 +--------------------------------------------------------------------+
 |                Checking for Isolated Fluid Regions                 |
 +--------------------------------------------------------------------+
 
 No isolated fluid regions were found.

 +--------------------------------------------------------------------+
 |              The Equations Solved in This Calculation              |
 +--------------------------------------------------------------------+

 Subsystem : Momentum and Mass

   U-Mom
   V-Mom
   W-Mom
   P-Mass

 Subsystem : Heat Transfer

   H-Energy

 Subsystem : TurbKE and Diss.K

   K-TurbKE
   E-Diss.K
                   
 CFD Solver started: Thu Dec  6 14:34:11 2018


 +--------------------------------------------------------------------+
 |                       Convergence History                          |
 +--------------------------------------------------------------------+

 ======================================================================
 |                        Timescale Information                       |
 ----------------------------------------------------------------------
 |       Equation       |         Type          |      Timescale      |
 +----------------------+-----------------------+---------------------+
 | U-Mom                | Auto Timescale        |     1.45842E-01     |
 | V-Mom                | Auto Timescale        |     1.45842E-01     |
 | W-Mom                | Auto Timescale        |     1.45842E-01     |
 +----------------------+-----------------------+---------------------+
 | H-Energy             | Auto Timescale        |     1.45842E-01     |
 +----------------------+-----------------------+---------------------+
 | K-TurbKE             | Auto Timescale        |     1.45842E-01     |
 | E-Diss.K             | Auto Timescale        |     1.45842E-01     |
 +----------------------+-----------------------+---------------------+

 ======================================================================
 OUTER LOOP ITERATION =  453 (    1) CPU SECONDS = 3.268E+02 (3.405E+00)
 ----------------------------------------------------------------------
 |       Equation       | Rate | RMS Res | Max Res |  Linear Solution |
 +----------------------+------+---------+---------+------------------+
 | U-Mom                | 0.00 | 5.4E-03 | 1.2E-01 |       7.5E-02  OK|
 | V-Mom                | 0.00 | 5.4E-03 | 8.7E-02 |       8.8E-02  OK|
 | W-Mom                | 0.00 | 2.7E-03 | 4.5E-02 |       1.1E-01  ok|
 | P-Mass               | 0.00 | 7.5E-03 | 1.2E-01 |  4.7  7.0E-02  OK|
 +----------------------+------+---------+---------+------------------+
 | H-Energy             | 0.00 | 1.6E-02 | 3.6E-01 |  5.4  1.8E-02  OK|
 +----------------------+------+---------+---------+------------------+
 | K-TurbKE             | 0.00 | 1.0E-02 | 8.8E-02 |  5.4  3.5E-02  OK|
 | E-Diss.K             | 0.00 | 9.4E-02 | 7.1E-01 |  8.2  5.2E-03  OK|
 +----------------------+------+---------+---------+------------------+

 ======================================================================
 OUTER LOOP ITERATION =  454 (    2) CPU SECONDS = 3.278E+02 (4.313E+00)
 ----------------------------------------------------------------------
 |       Equation       | Rate | RMS Res | Max Res |  Linear Solution |
 +----------------------+------+---------+---------+------------------+
 | U-Mom                | 1.77 | 9.5E-03 | 1.3E-01 |       2.6E-02  OK|
 | V-Mom                | 1.77 | 9.6E-03 | 1.4E-01 |       2.6E-02  OK|
 | W-Mom                | 1.31 | 3.5E-03 | 7.5E-02 |       3.0E-02  OK|
 | P-Mass               | 0.29 | 2.1E-03 | 3.7E-02 |  8.5  3.5E-02  OK|
 +----------------------+------+---------+---------+------------------+
 | H-Energy             | 0.31 | 4.9E-03 | 9.6E-02 |  5.4  3.7E-02  OK|
 +----------------------+------+---------+---------+------------------+
 | K-TurbKE             | 0.96 | 9.9E-03 | 5.5E-02 |  5.4  2.8E-02  OK|
 | E-Diss.K             | 0.64 | 6.0E-02 | 4.6E-01 |  8.2  2.4E-03  OK|
 +----------------------+------+---------+---------+------------------+

 ======================================================================
 OUTER LOOP ITERATION =  455 (    3) CPU SECONDS = 3.285E+02 (5.088E+00)
 ----------------------------------------------------------------------
 |       Equation       | Rate | RMS Res | Max Res |  Linear Solution |
 +----------------------+------+---------+---------+------------------+
 | U-Mom                | 0.94 | 8.9E-03 | 1.5E-01 |       2.1E-02  OK|
 | V-Mom                | 0.95 | 9.1E-03 | 1.6E-01 |       2.1E-02  OK|
 | W-Mom                | 1.01 | 3.6E-03 | 7.9E-02 |       2.9E-02  OK|
 | P-Mass               | 0.47 | 1.0E-03 | 1.6E-02 |  8.5  5.1E-02  OK|
 +----------------------+------+---------+---------+------------------+
 | H-Energy             | 0.58 | 2.9E-03 | 5.0E-02 |  5.4  4.0E-02  OK|
 +----------------------+------+---------+---------+------------------+
 | K-TurbKE             | 0.62 | 6.1E-03 | 3.8E-02 |  5.4  3.3E-02  OK|
 | E-Diss.K             | 0.52 | 3.1E-02 | 2.1E-01 |  8.3  4.7E-03  OK|
 +----------------------+------+---------+---------+------------------+

 ======================================================================
 |                        Timescale Information                       |
 ----------------------------------------------------------------------
 |       Equation       |         Type          |      Timescale      |
 +----------------------+-----------------------+---------------------+
 | U-Mom                | Auto Timescale        |     1.55023E-01     |
 | V-Mom                | Auto Timescale        |     1.55023E-01     |
 | W-Mom                | Auto Timescale        |     1.55023E-01     |
 +----------------------+-----------------------+---------------------+
 | H-Energy             | Auto Timescale        |     1.55023E-01     |
 +----------------------+-----------------------+---------------------+
 | K-TurbKE             | Auto Timescale        |     1.55023E-01     |
 | E-Diss.K             | Auto Timescale        |     1.55023E-01     |
 +----------------------+-----------------------+---------------------+

 ======================================================================
 OUTER LOOP ITERATION =  456 (    4) CPU SECONDS = 3.293E+02 (5.864E+00)
 ----------------------------------------------------------------------
 |       Equation       | Rate | RMS Res | Max Res |  Linear Solution |
 +----------------------+------+---------+---------+------------------+
 | U-Mom                | 0.57 | 5.1E-03 | 1.1E-01 |       7.3E-02  OK|
 | V-Mom                | 0.62 | 5.7E-03 | 1.3E-01 |       9.5E-02  OK|
 | W-Mom                | 0.65 | 2.3E-03 | 5.7E-02 |       1.1E-01  ok|
 | P-Mass               | 1.03 | 1.0E-03 | 1.7E-02 |  4.7  9.2E-02  OK|
 +----------------------+------+---------+---------+------------------+
 | H-Energy             | 0.79 | 2.3E-03 | 4.0E-02 |  5.4  4.3E-02  OK|
 +----------------------+------+---------+---------+------------------+
 | K-TurbKE             | 0.68 | 4.2E-03 | 2.4E-02 |  5.4  3.8E-02  OK|
 | E-Diss.K             | 0.58 | 1.8E-02 | 1.1E-01 |  8.2  6.3E-03  OK|
 +----------------------+------+---------+---------+------------------+

 ======================================================================
 OUTER LOOP ITERATION =  457 (    5) CPU SECONDS = 3.301E+02 (6.650E+00)
 ----------------------------------------------------------------------
 |       Equation       | Rate | RMS Res | Max Res |  Linear Solution |
 +----------------------+------+---------+---------+------------------+
 | U-Mom                | 0.59 | 3.0E-03 | 7.2E-02 |       8.7E-02  OK|
 | V-Mom                | 0.65 | 3.7E-03 | 1.0E-01 |       8.6E-02  OK|
 | W-Mom                | 0.64 | 1.5E-03 | 4.2E-02 |       1.3E-01  ok|
 | P-Mass               | 0.75 | 7.8E-04 | 1.6E-02 |  4.7  6.4E-02  OK|
 +----------------------+------+---------+---------+------------------+
 | H-Energy             | 0.83 | 1.9E-03 | 2.9E-02 |  5.4  4.3E-02  OK|
 +----------------------+------+---------+---------+------------------+
 | K-TurbKE             | 0.69 | 2.9E-03 | 2.2E-02 |  5.4  3.8E-02  OK|
 | E-Diss.K             | 0.57 | 1.0E-02 | 6.9E-02 |  8.2  7.7E-03  OK|
 +----------------------+------+---------+---------+------------------+

 ======================================================================
 OUTER LOOP ITERATION =  458 (    6) CPU SECONDS = 3.309E+02 (7.423E+00)
 ----------------------------------------------------------------------
 |       Equation       | Rate | RMS Res | Max Res |  Linear Solution |
 +----------------------+------+---------+---------+------------------+
 | U-Mom                | 0.62 | 1.9E-03 | 4.5E-02 |       9.6E-02  OK|
 | V-Mom                | 0.59 | 2.2E-03 | 5.3E-02 |       9.4E-02  OK|
 | W-Mom                | 0.59 | 8.8E-04 | 2.2E-02 |       1.5E-01  ok|
 | P-Mass               | 0.60 | 4.6E-04 | 1.2E-02 |  4.7  6.7E-02  OK|
 +----------------------+------+---------+---------+------------------+
 | H-Energy             | 0.82 | 1.5E-03 | 2.1E-02 |  5.4  4.1E-02  OK|
 +----------------------+------+---------+---------+------------------+
 | K-TurbKE             | 0.68 | 2.0E-03 | 1.8E-02 |  5.4  3.9E-02  OK|
 | E-Diss.K             | 0.57 | 5.8E-03 | 4.4E-02 |  8.2  8.4E-03  OK|
 +----------------------+------+---------+---------+------------------+

 ======================================================================
 OUTER LOOP ITERATION =  459 (    7) CPU SECONDS = 3.317E+02 (8.238E+00)
 ----------------------------------------------------------------------
 |       Equation       | Rate | RMS Res | Max Res |  Linear Solution |
 +----------------------+------+---------+---------+------------------+
 | U-Mom                | 0.64 | 1.2E-03 | 2.5E-02 |       1.1E-01  ok|
 | V-Mom                | 0.59 | 1.3E-03 | 2.6E-02 |       1.1E-01  ok|
 | W-Mom                | 0.62 | 5.4E-04 | 1.1E-02 |       1.6E-01  ok|
 | P-Mass               | 0.60 | 2.8E-04 | 8.1E-03 |  4.7  7.8E-02  OK|
 +----------------------+------+---------+---------+------------------+
 | H-Energy             | 0.84 | 1.3E-03 | 1.5E-02 |  5.4  3.9E-02  OK|
 +----------------------+------+---------+---------+------------------+
 | K-TurbKE             | 0.69 | 1.3E-03 | 1.2E-02 |  5.4  4.2E-02  OK|
 | E-Diss.K             | 0.57 | 3.3E-03 | 2.8E-02 |  8.2  8.9E-03  OK|
 +----------------------+------+---------+---------+------------------+

 ======================================================================
 OUTER LOOP ITERATION =  460 (    8) CPU SECONDS = 3.324E+02 (9.010E+00)
 ----------------------------------------------------------------------
 |       Equation       | Rate | RMS Res | Max Res |  Linear Solution |
 +----------------------+------+---------+---------+------------------+
 | U-Mom                | 0.65 | 7.7E-04 | 1.7E-02 |       3.7E-02  OK|
 | V-Mom                | 0.64 | 8.1E-04 | 1.8E-02 |       4.0E-02  OK|
 | W-Mom                | 0.69 | 3.8E-04 | 7.2E-03 |       3.6E-02  OK|
 | P-Mass               | 0.65 | 1.8E-04 | 4.9E-03 |  8.5  2.9E-02  OK|
 +----------------------+------+---------+---------+------------------+
 | H-Energy             | 0.88 | 1.1E-03 | 1.3E-02 |  5.4  3.8E-02  OK|
 +----------------------+------+---------+---------+------------------+
 | K-TurbKE             | 0.73 | 9.8E-04 | 8.9E-03 |  5.4  4.9E-02  OK|
 | E-Diss.K             | 0.62 | 2.1E-03 | 2.9E-02 |  8.2  8.3E-03  OK|
 +----------------------+------+---------+---------+------------------+

 ======================================================================
 |                        Timescale Information                       |
 ----------------------------------------------------------------------
 |       Equation       |         Type          |      Timescale      |
 +----------------------+-----------------------+---------------------+
 | U-Mom                | Auto Timescale        |     1.56277E-01     |
 | V-Mom                | Auto Timescale        |     1.56277E-01     |
 | W-Mom                | Auto Timescale        |     1.56277E-01     |
 +----------------------+-----------------------+---------------------+
 | H-Energy             | Auto Timescale        |     1.56277E-01     |
 +----------------------+-----------------------+---------------------+
 | K-TurbKE             | Auto Timescale        |     1.56277E-01     |
 | E-Diss.K             | Auto Timescale        |     1.56277E-01     |
 +----------------------+-----------------------+---------------------+

 ======================================================================
 OUTER LOOP ITERATION =  461 (    9) CPU SECONDS = 3.332E+02 (9.796E+00)
 ----------------------------------------------------------------------
 |       Equation       | Rate | RMS Res | Max Res |  Linear Solution |
 +----------------------+------+---------+---------+------------------+
 | U-Mom                | 0.72 | 5.6E-04 | 1.1E-02 |       4.4E-02  OK|
 | V-Mom                | 0.75 | 6.1E-04 | 1.3E-02 |       4.4E-02  OK|
 | W-Mom                | 0.79 | 3.0E-04 | 4.8E-03 |       3.6E-02  OK|
 | P-Mass               | 0.73 | 1.3E-04 | 2.8E-03 |  8.5  4.1E-02  OK|
 +----------------------+------+---------+---------+------------------+
 | H-Energy             | 0.91 | 1.0E-03 | 1.5E-02 |  5.4  3.8E-02  OK|
 +----------------------+------+---------+---------+------------------+
 | K-TurbKE             | 0.84 | 8.3E-04 | 6.6E-03 |  5.4  5.6E-02  OK|
 | E-Diss.K             | 0.82 | 1.7E-03 | 3.3E-02 |  8.2  8.2E-03  OK|
 +----------------------+------+---------+---------+------------------+

 ======================================================================
 OUTER LOOP ITERATION =  462 (   10) CPU SECONDS = 3.340E+02 (1.060E+01)
 ----------------------------------------------------------------------
 |       Equation       | Rate | RMS Res | Max Res |  Linear Solution |
 +----------------------+------+---------+---------+------------------+
 | U-Mom                | 0.85 | 4.7E-04 | 7.6E-03 |       5.0E-02  OK|
 | V-Mom                | 0.83 | 5.1E-04 | 8.8E-03 |       4.7E-02  OK|
 | W-Mom                | 0.87 | 2.6E-04 | 3.1E-03 |       3.8E-02  OK|
 | P-Mass               | 0.86 | 1.1E-04 | 1.5E-03 |  8.5  5.0E-02  OK|
 +----------------------+------+---------+---------+------------------+
 | H-Energy             | 0.92 | 9.4E-04 | 1.7E-02 |  5.4  3.8E-02  OK|
 +----------------------+------+---------+---------+------------------+
 | K-TurbKE             | 0.96 | 8.0E-04 | 5.0E-03 |  5.4  5.7E-02  OK|
 | E-Diss.K             | 1.03 | 1.8E-03 | 3.5E-02 |  8.2  9.4E-03  OK|
 +----------------------+------+---------+---------+------------------+

 ======================================================================
 OUTER LOOP ITERATION =  463 (   11) CPU SECONDS = 3.348E+02 (1.139E+01)
 ----------------------------------------------------------------------
 |       Equation       | Rate | RMS Res | Max Res |  Linear Solution |
 +----------------------+------+---------+---------+------------------+
 | U-Mom                | 0.89 | 4.2E-04 | 5.5E-03 |       5.4E-02  OK|
 | V-Mom                | 0.87 | 4.4E-04 | 7.7E-03 |       5.0E-02  OK|
 | W-Mom                | 0.91 | 2.3E-04 | 2.9E-03 |       3.9E-02  OK|
 | P-Mass               | 0.93 | 1.1E-04 | 1.4E-03 |  8.5  5.5E-02  OK|
 +----------------------+------+---------+---------+------------------+
 | H-Energy             | 0.91 | 8.5E-04 | 1.2E-02 |  5.4  3.7E-02  OK|
 +----------------------+------+---------+---------+------------------+
 | K-TurbKE             | 1.01 | 8.1E-04 | 4.8E-03 |  5.4  5.8E-02  OK|
 | E-Diss.K             | 1.06 | 1.9E-03 | 3.6E-02 |  8.2  1.0E-02  OK|
 +----------------------+------+---------+---------+------------------+

 ======================================================================
 OUTER LOOP ITERATION =  464 (   12) CPU SECONDS = 3.356E+02 (1.221E+01)
 ----------------------------------------------------------------------
 |       Equation       | Rate | RMS Res | Max Res |  Linear Solution |
 +----------------------+------+---------+---------+------------------+
 | U-Mom                | 0.88 | 3.7E-04 | 4.7E-03 |       5.6E-02  OK|
 | V-Mom                | 0.89 | 3.9E-04 | 6.5E-03 |       5.2E-02  OK|
 | W-Mom                | 0.93 | 2.2E-04 | 2.7E-03 |       4.0E-02  OK|
 | P-Mass               | 0.95 | 1.0E-04 | 1.4E-03 |  8.5  6.0E-02  OK|
 +----------------------+------+---------+---------+------------------+
 | H-Energy             | 0.91 | 7.8E-04 | 1.1E-02 |  5.4  3.8E-02  OK|
 +----------------------+------+---------+---------+------------------+
 | K-TurbKE             | 1.02 | 8.2E-04 | 4.7E-03 |  5.4  5.6E-02  OK|
 | E-Diss.K             | 1.04 | 1.9E-03 | 3.6E-02 |  8.2  1.1E-02  OK|
 +----------------------+------+---------+---------+------------------+

 ======================================================================
 OUTER LOOP ITERATION =  465 (   13) CPU SECONDS = 3.365E+02 (1.301E+01)
 ----------------------------------------------------------------------
 |       Equation       | Rate | RMS Res | Max Res |  Linear Solution |
 +----------------------+------+---------+---------+------------------+
 | U-Mom                | 0.89 | 3.3E-04 | 3.7E-03 |       5.6E-02  OK|
 | V-Mom                | 0.91 | 3.6E-04 | 5.1E-03 |       5.3E-02  OK|
 | W-Mom                | 0.94 | 2.1E-04 | 2.4E-03 |       4.0E-02  OK|
 | P-Mass               | 0.95 | 9.5E-05 | 1.4E-03 |  8.5  6.4E-02  OK|
 +----------------------+------+---------+---------+------------------+
 | H-Energy             | 0.92 | 7.1E-04 | 9.4E-03 |  5.4  3.9E-02  OK|
 +----------------------+------+---------+---------+------------------+
 | K-TurbKE             | 1.02 | 8.4E-04 | 4.6E-03 |  5.3  5.5E-02  OK|
 | E-Diss.K             | 1.00 | 1.9E-03 | 3.5E-02 |  8.2  1.2E-02  OK|
 +----------------------+------+---------+---------+------------------+

 ======================================================================
 |                        Timescale Information                       |
 ----------------------------------------------------------------------
 |       Equation       |         Type          |      Timescale      |
 +----------------------+-----------------------+---------------------+
 | U-Mom                | Auto Timescale        |     1.54454E-01     |
 | V-Mom                | Auto Timescale        |     1.54454E-01     |
 | W-Mom                | Auto Timescale        |     1.54454E-01     |
 +----------------------+-----------------------+---------------------+
 | H-Energy             | Auto Timescale        |     1.54454E-01     |
 +----------------------+-----------------------+---------------------+
 | K-TurbKE             | Auto Timescale        |     1.54454E-01     |
 | E-Diss.K             | Auto Timescale        |     1.54454E-01     |
 +----------------------+-----------------------+---------------------+

 ======================================================================
 OUTER LOOP ITERATION =  466 (   14) CPU SECONDS = 3.372E+02 (1.378E+01)
 ----------------------------------------------------------------------
 |       Equation       | Rate | RMS Res | Max Res |  Linear Solution |
 +----------------------+------+---------+---------+------------------+
 | U-Mom                | 0.91 | 3.0E-04 | 2.8E-03 |       5.6E-02  OK|
 | V-Mom                | 0.91 | 3.3E-04 | 4.1E-03 |       5.4E-02  OK|
 | W-Mom                | 0.95 | 2.0E-04 | 2.2E-03 |       4.0E-02  OK|
 | P-Mass               | 0.94 | 9.0E-05 | 1.4E-03 |  8.5  6.8E-02  OK|
 +----------------------+------+---------+---------+------------------+
 | H-Energy             | 0.94 | 6.7E-04 | 8.2E-03 |  5.4  3.9E-02  OK|
 +----------------------+------+---------+---------+------------------+
 | K-TurbKE             | 1.01 | 8.4E-04 | 4.4E-03 |  5.4  5.4E-02  OK|
 | E-Diss.K             | 0.97 | 1.9E-03 | 3.3E-02 |  8.2  1.2E-02  OK|
 +----------------------+------+---------+---------+------------------+

 ======================================================================
 OUTER LOOP ITERATION =  467 (   15) CPU SECONDS = 3.380E+02 (1.454E+01)
 ----------------------------------------------------------------------
 |       Equation       | Rate | RMS Res | Max Res |  Linear Solution |
 +----------------------+------+---------+---------+------------------+
 | U-Mom                | 0.94 | 2.8E-04 | 2.8E-03 |       5.6E-02  OK|
 | V-Mom                | 0.92 | 3.0E-04 | 3.2E-03 |       5.5E-02  OK|
 | W-Mom                | 0.96 | 1.9E-04 | 2.1E-03 |       4.0E-02  OK|
 | P-Mass               | 0.92 | 8.3E-05 | 1.3E-03 |  8.5  7.3E-02  OK|
 +----------------------+------+---------+---------+------------------+
 | H-Energy             | 0.95 | 6.3E-04 | 8.4E-03 |  5.4  3.9E-02  OK|
 +----------------------+------+---------+---------+------------------+
 | K-TurbKE             | 1.00 | 8.4E-04 | 4.3E-03 |  5.4  5.4E-02  OK|
 | E-Diss.K             | 0.96 | 1.8E-03 | 3.1E-02 |  8.2  1.2E-02  OK|
 +----------------------+------+---------+---------+------------------+

 ======================================================================
 OUTER LOOP ITERATION =  468 (   16) CPU SECONDS = 3.388E+02 (1.540E+01)
 ----------------------------------------------------------------------
 |       Equation       | Rate | RMS Res | Max Res |  Linear Solution |
 +----------------------+------+---------+---------+------------------+
 | U-Mom                | 0.95 | 2.7E-04 | 3.4E-03 |       5.5E-02  OK|
 | V-Mom                | 0.93 | 2.8E-04 | 3.0E-03 |       5.6E-02  OK|
 | W-Mom                | 0.96 | 1.8E-04 | 2.0E-03 |       4.0E-02  OK|
 | P-Mass               | 0.92 | 7.6E-05 | 1.2E-03 |  8.5  7.8E-02  OK|
 +----------------------+------+---------+---------+------------------+
 | H-Energy             | 0.96 | 6.1E-04 | 9.5E-03 |  5.4  3.9E-02  OK|
 +----------------------+------+---------+---------+------------------+
 | K-TurbKE             | 0.99 | 8.4E-04 | 4.0E-03 |  5.4  5.3E-02  OK|
 | E-Diss.K             | 0.95 | 1.7E-03 | 2.8E-02 |  8.2  1.3E-02  OK|
 +----------------------+------+---------+---------+------------------+

 ======================================================================
 OUTER LOOP ITERATION =  469 (   17) CPU SECONDS = 3.397E+02 (1.622E+01)
 ----------------------------------------------------------------------
 |       Equation       | Rate | RMS Res | Max Res |  Linear Solution |
 +----------------------+------+---------+---------+------------------+
 | U-Mom                | 0.96 | 2.6E-04 | 3.9E-03 |       5.5E-02  OK|
 | V-Mom                | 0.94 | 2.6E-04 | 2.9E-03 |       5.6E-02  OK|
 | W-Mom                | 0.96 | 1.7E-04 | 1.9E-03 |       4.0E-02  OK|
 | P-Mass               | 0.91 | 6.9E-05 | 1.0E-03 |  8.5  8.3E-02  OK|
 +----------------------+------+---------+---------+------------------+
 | H-Energy             | 0.96 | 5.9E-04 | 9.3E-03 |  5.4  3.8E-02  OK|
 +----------------------+------+---------+---------+------------------+
 | K-TurbKE             | 0.99 | 8.3E-04 | 3.5E-03 |  5.4  5.3E-02  OK|
 | E-Diss.K             | 0.94 | 1.6E-03 | 2.5E-02 |  8.2  1.3E-02  OK|
 +----------------------+------+---------+---------+------------------+

 ======================================================================
 OUTER LOOP ITERATION =  470 (   18) CPU SECONDS = 3.405E+02 (1.704E+01)
 ----------------------------------------------------------------------
 |       Equation       | Rate | RMS Res | Max Res |  Linear Solution |
 +----------------------+------+---------+---------+------------------+
 | U-Mom                | 0.96 | 2.5E-04 | 4.2E-03 |       5.4E-02  OK|
 | V-Mom                | 0.96 | 2.5E-04 | 3.1E-03 |       5.6E-02  OK|
 | W-Mom                | 0.96 | 1.6E-04 | 1.9E-03 |       4.2E-02  OK|
 | P-Mass               | 0.91 | 6.3E-05 | 9.2E-04 |  8.5  8.6E-02  OK|
 +----------------------+------+---------+---------+------------------+
 | H-Energy             | 0.95 | 5.6E-04 | 9.4E-03 |  5.4  3.9E-02  OK|
 +----------------------+------+---------+---------+------------------+
 | K-TurbKE             | 0.99 | 8.2E-04 | 3.4E-03 |  5.4  5.3E-02  OK|
 | E-Diss.K             | 0.94 | 1.5E-03 | 2.2E-02 |  8.2  1.4E-02  OK|
 +----------------------+------+---------+---------+------------------+

 ======================================================================
 |                        Timescale Information                       |
 ----------------------------------------------------------------------
 |       Equation       |         Type          |      Timescale      |
 +----------------------+-----------------------+---------------------+
 | U-Mom                | Auto Timescale        |     1.52411E-01     |
 | V-Mom                | Auto Timescale        |     1.52411E-01     |
 | W-Mom                | Auto Timescale        |     1.52411E-01     |
 +----------------------+-----------------------+---------------------+
 | H-Energy             | Auto Timescale        |     1.52411E-01     |
 +----------------------+-----------------------+---------------------+
 | K-TurbKE             | Auto Timescale        |     1.52411E-01     |
 | E-Diss.K             | Auto Timescale        |     1.52411E-01     |
 +----------------------+-----------------------+---------------------+

 ======================================================================
 OUTER LOOP ITERATION =  471 (   19) CPU SECONDS = 3.413E+02 (1.785E+01)
 ----------------------------------------------------------------------
 |       Equation       | Rate | RMS Res | Max Res |  Linear Solution |
 +----------------------+------+---------+---------+------------------+
 | U-Mom                | 0.95 | 2.4E-04 | 4.3E-03 |       5.4E-02  OK|
 | V-Mom                | 0.97 | 2.4E-04 | 4.0E-03 |       5.4E-02  OK|
 | W-Mom                | 0.96 | 1.6E-04 | 1.8E-03 |       4.4E-02  OK|
 | P-Mass               | 0.91 | 5.7E-05 | 8.0E-04 |  8.5  8.8E-02  OK|
 +----------------------+------+---------+---------+------------------+
 | H-Energy             | 0.95 | 5.3E-04 | 9.8E-03 |  5.4  3.8E-02  OK|
 +----------------------+------+---------+---------+------------------+
 | K-TurbKE             | 0.98 | 8.1E-04 | 3.4E-03 |  5.4  5.2E-02  OK|
 | E-Diss.K             | 0.93 | 1.4E-03 | 2.0E-02 |  8.2  1.4E-02  OK|
 +----------------------+------+---------+---------+------------------+

 ======================================================================
 OUTER LOOP ITERATION =  472 (   20) CPU SECONDS = 3.421E+02 (1.866E+01)
 ----------------------------------------------------------------------
 |       Equation       | Rate | RMS Res | Max Res |  Linear Solution |
 +----------------------+------+---------+---------+------------------+
 | U-Mom                | 0.95 | 2.2E-04 | 4.1E-03 |       5.4E-02  OK|
 | V-Mom                | 0.98 | 2.4E-04 | 4.5E-03 |       5.3E-02  OK|
 | W-Mom                | 0.96 | 1.5E-04 | 1.6E-03 |       4.6E-02  OK|
 | P-Mass               | 0.91 | 5.2E-05 | 6.8E-04 |  8.5  9.0E-02  OK|
 +----------------------+------+---------+---------+------------------+
 | H-Energy             | 0.95 | 5.1E-04 | 8.0E-03 |  5.4  3.9E-02  OK|
 +----------------------+------+---------+---------+------------------+
 | K-TurbKE             | 0.98 | 7.9E-04 | 3.4E-03 |  5.3  5.2E-02  OK|
 | E-Diss.K             | 0.94 | 1.3E-03 | 1.9E-02 |  8.2  1.5E-02  OK|
 +----------------------+------+---------+---------+------------------+

 ======================================================================
 OUTER LOOP ITERATION =  473 (   21) CPU SECONDS = 3.429E+02 (1.949E+01)
 ----------------------------------------------------------------------
 |       Equation       | Rate | RMS Res | Max Res |  Linear Solution |
 +----------------------+------+---------+---------+------------------+
 | U-Mom                | 0.95 | 2.1E-04 | 3.6E-03 |       5.5E-02  OK|
 | V-Mom                | 0.98 | 2.4E-04 | 4.7E-03 |       5.1E-02  OK|
 | W-Mom                | 0.96 | 1.4E-04 | 1.5E-03 |       4.8E-02  OK|
 | P-Mass               | 0.92 | 4.8E-05 | 5.7E-04 |  8.5  9.1E-02  OK|
 +----------------------+------+---------+---------+------------------+
 | H-Energy             | 0.96 | 4.9E-04 | 7.5E-03 |  5.4  3.8E-02  OK|
 +----------------------+------+---------+---------+------------------+
 | K-TurbKE             | 0.98 | 7.8E-04 | 3.5E-03 |  5.4  5.1E-02  OK|
 | E-Diss.K             | 0.94 | 1.3E-03 | 1.7E-02 |  8.2  1.5E-02  OK|
 +----------------------+------+---------+---------+------------------+

 ======================================================================
 OUTER LOOP ITERATION =  474 (   22) CPU SECONDS = 3.437E+02 (2.028E+01)
 ----------------------------------------------------------------------
 |       Equation       | Rate | RMS Res | Max Res |  Linear Solution |
 +----------------------+------+---------+---------+------------------+
 | U-Mom                | 0.95 | 2.0E-04 | 2.9E-03 |       5.6E-02  OK|
 | V-Mom                | 0.98 | 2.3E-04 | 4.9E-03 |       4.9E-02  OK|
 | W-Mom                | 0.96 | 1.4E-04 | 1.5E-03 |       4.9E-02  OK|
 | P-Mass               | 0.93 | 4.5E-05 | 4.6E-04 |  8.5  9.1E-02  OK|
 +----------------------+------+---------+---------+------------------+
 | H-Energy             | 0.96 | 4.7E-04 | 6.9E-03 |  5.4  3.8E-02  OK|
 +----------------------+------+---------+---------+------------------+
 | K-TurbKE             | 0.98 | 7.6E-04 | 3.7E-03 |  5.4  5.1E-02  OK|
 | E-Diss.K             | 0.95 | 1.2E-03 | 1.6E-02 |  8.2  1.5E-02  OK|
 +----------------------+------+---------+---------+------------------+

 ======================================================================
 OUTER LOOP ITERATION =  475 (   23) CPU SECONDS = 3.445E+02 (2.107E+01)
 ----------------------------------------------------------------------
 |       Equation       | Rate | RMS Res | Max Res |  Linear Solution |
 +----------------------+------+---------+---------+------------------+
 | U-Mom                | 0.96 | 1.9E-04 | 1.9E-03 |       5.6E-02  OK|
 | V-Mom                | 0.97 | 2.2E-04 | 5.7E-03 |       4.7E-02  OK|
 | W-Mom                | 0.96 | 1.3E-04 | 1.4E-03 |       5.0E-02  OK|
 | P-Mass               | 0.94 | 4.2E-05 | 4.4E-04 |  8.5  9.1E-02  OK|
 +----------------------+------+---------+---------+------------------+
 | H-Energy             | 0.96 | 4.5E-04 | 5.5E-03 |  5.4  3.8E-02  OK|
 +----------------------+------+---------+---------+------------------+
 | K-TurbKE             | 0.97 | 7.4E-04 | 3.7E-03 |  5.4  5.1E-02  OK|
 | E-Diss.K             | 0.95 | 1.1E-03 | 1.4E-02 |  8.2  1.5E-02  OK|
 +----------------------+------+---------+---------+------------------+

 ======================================================================
 |                        Timescale Information                       |
 ----------------------------------------------------------------------
 |       Equation       |         Type          |      Timescale      |
 +----------------------+-----------------------+---------------------+
 | U-Mom                | Auto Timescale        |     1.50659E-01     |
 | V-Mom                | Auto Timescale        |     1.50659E-01     |
 | W-Mom                | Auto Timescale        |     1.50659E-01     |
 +----------------------+-----------------------+---------------------+
 | H-Energy             | Auto Timescale        |     1.50659E-01     |
 +----------------------+-----------------------+---------------------+
 | K-TurbKE             | Auto Timescale        |     1.50659E-01     |
 | E-Diss.K             | Auto Timescale        |     1.50659E-01     |
 +----------------------+-----------------------+---------------------+

 ======================================================================
 OUTER LOOP ITERATION =  476 (   24) CPU SECONDS = 3.453E+02 (2.187E+01)
 ----------------------------------------------------------------------
 |       Equation       | Rate | RMS Res | Max Res |  Linear Solution |
 +----------------------+------+---------+---------+------------------+
 | U-Mom                | 0.97 | 1.9E-04 | 2.4E-03 |       5.5E-02  OK|
 | V-Mom                | 0.96 | 2.1E-04 | 6.1E-03 |       4.6E-02  OK|
 | W-Mom                | 0.96 | 1.3E-04 | 1.3E-03 |       5.0E-02  OK|
 | P-Mass               | 0.95 | 4.0E-05 | 4.3E-04 |  8.5  9.0E-02  OK|
 +----------------------+------+---------+---------+------------------+
 | H-Energy             | 0.97 | 4.3E-04 | 5.3E-03 |  5.4  3.7E-02  OK|
 +----------------------+------+---------+---------+------------------+
 | K-TurbKE             | 0.97 | 7.2E-04 | 3.7E-03 |  5.4  5.0E-02  OK|
 | E-Diss.K             | 0.95 | 1.1E-03 | 1.4E-02 |  8.2  1.5E-02  OK|
 +----------------------+------+---------+---------+------------------+

 ======================================================================
 OUTER LOOP ITERATION =  477 (   25) CPU SECONDS = 3.461E+02 (2.268E+01)
 ----------------------------------------------------------------------
 |       Equation       | Rate | RMS Res | Max Res |  Linear Solution |
 +----------------------+------+---------+---------+------------------+
 | U-Mom                | 0.97 | 1.8E-04 | 2.8E-03 |       5.4E-02  OK|
 | V-Mom                | 0.95 | 2.0E-04 | 6.1E-03 |       4.5E-02  OK|
 | W-Mom                | 0.96 | 1.2E-04 | 1.3E-03 |       5.1E-02  OK|
 | P-Mass               | 0.96 | 3.8E-05 | 4.5E-04 |  8.5  8.9E-02  OK|
 +----------------------+------+---------+---------+------------------+
 | H-Energy             | 0.97 | 4.2E-04 | 4.1E-03 |  5.3  3.7E-02  OK|
 +----------------------+------+---------+---------+------------------+
 | K-TurbKE             | 0.97 | 7.0E-04 | 3.6E-03 |  5.4  4.9E-02  OK|
 | E-Diss.K             | 0.96 | 1.0E-03 | 1.3E-02 |  8.2  1.6E-02  OK|
 +----------------------+------+---------+---------+------------------+

 ======================================================================
 OUTER LOOP ITERATION =  478 (   26) CPU SECONDS = 3.469E+02 (2.350E+01)
 ----------------------------------------------------------------------
 |       Equation       | Rate | RMS Res | Max Res |  Linear Solution |
 +----------------------+------+---------+---------+------------------+
 | U-Mom                | 0.98 | 1.8E-04 | 2.9E-03 |       5.2E-02  OK|
 | V-Mom                | 0.94 | 1.9E-04 | 5.7E-03 |       4.6E-02  OK|
 | W-Mom                | 0.97 | 1.2E-04 | 1.3E-03 |       5.2E-02  OK|
 | P-Mass               | 0.97 | 3.7E-05 | 4.8E-04 |  8.5  8.8E-02  OK|
 +----------------------+------+---------+---------+------------------+
 | H-Energy             | 0.98 | 4.1E-04 | 4.6E-03 |  5.3  3.7E-02  OK|
 +----------------------+------+---------+---------+------------------+
 | K-TurbKE             | 0.97 | 6.7E-04 | 3.4E-03 |  5.4  4.9E-02  OK|
 | E-Diss.K             | 0.96 | 9.8E-04 | 1.3E-02 |  8.2  1.6E-02  OK|
 +----------------------+------+---------+---------+------------------+

 ======================================================================
 OUTER LOOP ITERATION =  479 (   27) CPU SECONDS = 3.478E+02 (2.435E+01)
 ----------------------------------------------------------------------
 |       Equation       | Rate | RMS Res | Max Res |  Linear Solution |
 +----------------------+------+---------+---------+------------------+
 | U-Mom                | 0.98 | 1.7E-04 | 2.8E-03 |       4.9E-02  OK|
 | V-Mom                | 0.94 | 1.8E-04 | 5.0E-03 |       4.7E-02  OK|
 | W-Mom                | 0.97 | 1.1E-04 | 1.2E-03 |       5.2E-02  OK|
 | P-Mass               | 0.97 | 3.6E-05 | 4.9E-04 |  8.5  8.7E-02  OK|
 +----------------------+------+---------+---------+------------------+
 | H-Energy             | 0.98 | 4.1E-04 | 5.2E-03 |  5.4  3.8E-02  OK|
 +----------------------+------+---------+---------+------------------+
 | K-TurbKE             | 0.97 | 6.5E-04 | 3.3E-03 |  5.4  4.9E-02  OK|
 | E-Diss.K             | 0.96 | 9.4E-04 | 1.2E-02 |  8.3  1.6E-02  OK|
 +----------------------+------+---------+---------+------------------+

 ======================================================================
 OUTER LOOP ITERATION =  480 (   28) CPU SECONDS = 3.487E+02 (2.524E+01)
 ----------------------------------------------------------------------
 |       Equation       | Rate | RMS Res | Max Res |  Linear Solution |
 +----------------------+------+---------+---------+------------------+
 | U-Mom                | 0.97 | 1.7E-04 | 3.4E-03 |       4.6E-02  OK|
 | V-Mom                | 0.94 | 1.7E-04 | 4.0E-03 |       4.9E-02  OK|
 | W-Mom                | 0.97 | 1.1E-04 | 1.2E-03 |       5.3E-02  OK|
 | P-Mass               | 0.98 | 3.5E-05 | 4.9E-04 |  8.5  8.6E-02  OK|
 +----------------------+------+---------+---------+------------------+
 | H-Energy             | 0.99 | 4.0E-04 | 5.2E-03 |  5.3  3.8E-02  OK|
 +----------------------+------+---------+---------+------------------+
 | K-TurbKE             | 0.96 | 6.3E-04 | 3.2E-03 |  5.4  4.8E-02  OK|
 | E-Diss.K             | 0.96 | 9.1E-04 | 1.1E-02 |  8.3  1.6E-02  OK|
 +----------------------+------+---------+---------+------------------+

 ======================================================================
 |                        Timescale Information                       |
 ----------------------------------------------------------------------
 |       Equation       |         Type          |      Timescale      |
 +----------------------+-----------------------+---------------------+
 | U-Mom                | Auto Timescale        |     1.49199E-01     |
 | V-Mom                | Auto Timescale        |     1.49199E-01     |
 | W-Mom                | Auto Timescale        |     1.49199E-01     |
 +----------------------+-----------------------+---------------------+
 | H-Energy             | Auto Timescale        |     1.49199E-01     |
 +----------------------+-----------------------+---------------------+
 | K-TurbKE             | Auto Timescale        |     1.49199E-01     |
 | E-Diss.K             | Auto Timescale        |     1.49199E-01     |
 +----------------------+-----------------------+---------------------+

 ======================================================================
 OUTER LOOP ITERATION =  481 (   29) CPU SECONDS = 3.495E+02 (2.605E+01)
 ----------------------------------------------------------------------
 |       Equation       | Rate | RMS Res | Max Res |  Linear Solution |
 +----------------------+------+---------+---------+------------------+
 | U-Mom                | 0.96 | 1.6E-04 | 3.8E-03 |       4.2E-02  OK|
 | V-Mom                | 0.95 | 1.6E-04 | 2.9E-03 |       5.0E-02  OK|
 | W-Mom                | 0.97 | 1.1E-04 | 1.2E-03 |       5.2E-02  OK|
 | P-Mass               | 0.98 | 3.4E-05 | 4.7E-04 |  8.5  8.5E-02  OK|
 +----------------------+------+---------+---------+------------------+
 | H-Energy             | 1.00 | 4.0E-04 | 5.3E-03 |  5.4  3.9E-02  OK|
 +----------------------+------+---------+---------+------------------+
 | K-TurbKE             | 0.96 | 6.0E-04 | 3.0E-03 |  5.4  4.8E-02  OK|
 | E-Diss.K             | 0.96 | 8.7E-04 | 1.2E-02 |  8.3  1.6E-02  OK|
 +----------------------+------+---------+---------+------------------+

 ======================================================================
 OUTER LOOP ITERATION =  482 (   30) CPU SECONDS = 3.503E+02 (2.688E+01)
 ----------------------------------------------------------------------
 |       Equation       | Rate | RMS Res | Max Res |  Linear Solution |
 +----------------------+------+---------+---------+------------------+
 | U-Mom                | 0.95 | 1.5E-04 | 3.9E-03 |       4.0E-02  OK|
 | V-Mom                | 0.96 | 1.5E-04 | 1.8E-03 |       5.0E-02  OK|
 | W-Mom                | 0.97 | 1.0E-04 | 1.2E-03 |       5.2E-02  OK|
 | P-Mass               | 0.97 | 3.4E-05 | 4.4E-04 |  8.5  8.4E-02  OK|
 +----------------------+------+---------+---------+------------------+
 | H-Energy             | 0.99 | 4.0E-04 | 5.2E-03 |  5.3  4.0E-02  OK|
 +----------------------+------+---------+---------+------------------+
 | K-TurbKE             | 0.96 | 5.8E-04 | 3.0E-03 |  5.4  4.7E-02  OK|
 | E-Diss.K             | 0.96 | 8.4E-04 | 1.2E-02 |  8.2  1.6E-02  OK|
 +----------------------+------+---------+---------+------------------+

 ======================================================================
 OUTER LOOP ITERATION =  483 (   31) CPU SECONDS = 3.511E+02 (2.770E+01)
 ----------------------------------------------------------------------
 |       Equation       | Rate | RMS Res | Max Res |  Linear Solution |
 +----------------------+------+---------+---------+------------------+
 | U-Mom                | 0.95 | 1.5E-04 | 3.7E-03 |       3.8E-02  OK|
 | V-Mom                | 0.97 | 1.5E-04 | 1.3E-03 |       5.0E-02  OK|
 | W-Mom                | 0.97 | 1.0E-04 | 1.1E-03 |       5.1E-02  OK|
 | P-Mass               | 0.97 | 3.3E-05 | 3.9E-04 |  8.5  8.3E-02  OK|
 +----------------------+------+---------+---------+------------------+
 | H-Energy             | 0.99 | 4.0E-04 | 5.2E-03 |  5.3  4.1E-02  OK|
 +----------------------+------+---------+---------+------------------+
 | K-TurbKE             | 0.96 | 5.5E-04 | 2.9E-03 |  5.4  4.7E-02  OK|
 | E-Diss.K             | 0.96 | 8.0E-04 | 1.2E-02 |  8.3  1.6E-02  OK|
 +----------------------+------+---------+---------+------------------+

 ======================================================================
 OUTER LOOP ITERATION =  484 (   32) CPU SECONDS = 3.520E+02 (2.852E+01)
 ----------------------------------------------------------------------
 |       Equation       | Rate | RMS Res | Max Res |  Linear Solution |
 +----------------------+------+---------+---------+------------------+
 | U-Mom                | 0.95 | 1.4E-04 | 3.4E-03 |       3.9E-02  OK|
 | V-Mom                | 0.97 | 1.5E-04 | 1.3E-03 |       4.9E-02  OK|
 | W-Mom                | 0.97 | 9.7E-05 | 1.1E-03 |       4.9E-02  OK|
 | P-Mass               | 0.97 | 3.2E-05 | 4.0E-04 |  8.5  8.3E-02  OK|
 +----------------------+------+---------+---------+------------------+
 | H-Energy             | 0.99 | 3.9E-04 | 5.3E-03 |  5.3  4.2E-02  OK|
 +----------------------+------+---------+---------+------------------+
 | K-TurbKE             | 0.96 | 5.3E-04 | 2.8E-03 |  5.4  4.6E-02  OK|
 | E-Diss.K             | 0.96 | 7.7E-04 | 1.1E-02 |  8.2  1.5E-02  OK|
 +----------------------+------+---------+---------+------------------+

 ======================================================================
 OUTER LOOP ITERATION =  485 (   33) CPU SECONDS = 3.528E+02 (2.938E+01)
 ----------------------------------------------------------------------
 |       Equation       | Rate | RMS Res | Max Res |  Linear Solution |
 +----------------------+------+---------+---------+------------------+
 | U-Mom                | 0.95 | 1.3E-04 | 2.9E-03 |       4.0E-02  OK|
 | V-Mom                | 0.97 | 1.4E-04 | 1.2E-03 |       4.5E-02  OK|
 | W-Mom                | 0.97 | 9.4E-05 | 1.0E-03 |       4.8E-02  OK|
 | P-Mass               | 0.97 | 3.1E-05 | 3.9E-04 |  8.5  8.2E-02  OK|
 +----------------------+------+---------+---------+------------------+
 | H-Energy             | 0.98 | 3.9E-04 | 5.2E-03 |  5.3  4.4E-02  OK|
 +----------------------+------+---------+---------+------------------+
 | K-TurbKE             | 0.96 | 5.1E-04 | 2.8E-03 |  5.4  4.6E-02  OK|
 | E-Diss.K             | 0.96 | 7.4E-04 | 1.0E-02 |  8.3  1.5E-02  OK|
 +----------------------+------+---------+---------+------------------+

 ======================================================================
 |                        Timescale Information                       |
 ----------------------------------------------------------------------
 |       Equation       |         Type          |      Timescale      |
 +----------------------+-----------------------+---------------------+
 | U-Mom                | Auto Timescale        |     1.47964E-01     |
 | V-Mom                | Auto Timescale        |     1.47964E-01     |
 | W-Mom                | Auto Timescale        |     1.47964E-01     |
 +----------------------+-----------------------+---------------------+
 | H-Energy             | Auto Timescale        |     1.47964E-01     |
 +----------------------+-----------------------+---------------------+
 | K-TurbKE             | Auto Timescale        |     1.47964E-01     |
 | E-Diss.K             | Auto Timescale        |     1.47964E-01     |
 +----------------------+-----------------------+---------------------+

 ======================================================================
 OUTER LOOP ITERATION =  486 (   34) CPU SECONDS = 3.536E+02 (3.021E+01)
 ----------------------------------------------------------------------
 |       Equation       | Rate | RMS Res | Max Res |  Linear Solution |
 +----------------------+------+---------+---------+------------------+
 | U-Mom                | 0.95 | 1.2E-04 | 2.3E-03 |       4.2E-02  OK|
 | V-Mom                | 0.97 | 1.4E-04 | 1.2E-03 |       4.1E-02  OK|
 | W-Mom                | 0.96 | 9.0E-05 | 9.6E-04 |       4.6E-02  OK|
 | P-Mass               | 0.97 | 3.0E-05 | 3.6E-04 |  8.5  8.1E-02  OK|
 +----------------------+------+---------+---------+------------------+
 | H-Energy             | 0.98 | 3.8E-04 | 4.9E-03 |  5.4  4.5E-02  OK|
 +----------------------+------+---------+---------+------------------+
 | K-TurbKE             | 0.95 | 4.8E-04 | 2.7E-03 |  5.4  4.5E-02  OK|
 | E-Diss.K             | 0.95 | 7.0E-04 | 9.5E-03 |  8.2  1.5E-02  OK|
 +----------------------+------+---------+---------+------------------+

 ======================================================================
 OUTER LOOP ITERATION =  487 (   35) CPU SECONDS = 3.545E+02 (3.105E+01)
 ----------------------------------------------------------------------
 |       Equation       | Rate | RMS Res | Max Res |  Linear Solution |
 +----------------------+------+---------+---------+------------------+
 | U-Mom                | 0.96 | 1.2E-04 | 1.8E-03 |       4.5E-02  OK|
 | V-Mom                | 0.97 | 1.3E-04 | 1.2E-03 |       3.6E-02  OK|
 | W-Mom                | 0.96 | 8.7E-05 | 9.2E-04 |       4.4E-02  OK|
 | P-Mass               | 0.96 | 2.8E-05 | 3.2E-04 |  8.5  8.0E-02  OK|
 +----------------------+------+---------+---------+------------------+
 | H-Energy             | 0.98 | 3.7E-04 | 4.8E-03 |  5.4  4.6E-02  OK|
 +----------------------+------+---------+---------+------------------+
 | K-TurbKE             | 0.95 | 4.6E-04 | 2.6E-03 |  5.4  4.5E-02  OK|
 | E-Diss.K             | 0.95 | 6.7E-04 | 8.8E-03 |  8.2  1.5E-02  OK|
 +----------------------+------+---------+---------+------------------+

 ======================================================================
 OUTER LOOP ITERATION =  488 (   36) CPU SECONDS = 3.553E+02 (3.189E+01)
 ----------------------------------------------------------------------
 |       Equation       | Rate | RMS Res | Max Res |  Linear Solution |
 +----------------------+------+---------+---------+------------------+
 | U-Mom                | 0.96 | 1.1E-04 | 1.4E-03 |       4.6E-02  OK|
 | V-Mom                | 0.97 | 1.3E-04 | 1.1E-03 |       3.2E-02  OK|
 | W-Mom                | 0.96 | 8.3E-05 | 9.1E-04 |       4.3E-02  OK|
 | P-Mass               | 0.96 | 2.7E-05 | 2.8E-04 |  8.5  8.0E-02  OK|
 +----------------------+------+---------+---------+------------------+
 | H-Energy             | 0.97 | 3.6E-04 | 4.8E-03 |  5.3  4.7E-02  OK|
 +----------------------+------+---------+---------+------------------+
 | K-TurbKE             | 0.95 | 4.4E-04 | 2.5E-03 |  5.4  4.4E-02  OK|
 | E-Diss.K             | 0.95 | 6.4E-04 | 8.3E-03 |  8.2  1.5E-02  OK|
 +----------------------+------+---------+---------+------------------+

 ======================================================================
 OUTER LOOP ITERATION =  489 (   37) CPU SECONDS = 3.562E+02 (3.276E+01)
 ----------------------------------------------------------------------
 |       Equation       | Rate | RMS Res | Max Res |  Linear Solution |
 +----------------------+------+---------+---------+------------------+
 | U-Mom                | 0.96 | 1.1E-04 | 1.2E-03 |       4.6E-02  OK|
 | V-Mom                | 0.97 | 1.3E-04 | 1.1E-03 |       3.0E-02  OK|
 | W-Mom                | 0.96 | 8.0E-05 | 8.9E-04 |       4.2E-02  OK|
 | P-Mass               | 0.96 | 2.6E-05 | 2.6E-04 |  8.5  8.0E-02  OK|
 +----------------------+------+---------+---------+------------------+
 | H-Energy             | 0.97 | 3.5E-04 | 4.4E-03 |  5.3  4.8E-02  OK|
 +----------------------+------+---------+---------+------------------+
 | K-TurbKE             | 0.95 | 4.2E-04 | 2.4E-03 |  5.4  4.4E-02  OK|
 | E-Diss.K             | 0.95 | 6.1E-04 | 7.6E-03 |  8.2  1.5E-02  OK|
 +----------------------+------+---------+---------+------------------+

 ======================================================================
 OUTER LOOP ITERATION =  490 (   38) CPU SECONDS = 3.570E+02 (3.358E+01)
 ----------------------------------------------------------------------
 |       Equation       | Rate | RMS Res | Max Res |  Linear Solution |
 +----------------------+------+---------+---------+------------------+
 | U-Mom                | 0.97 | 1.1E-04 | 1.1E-03 |       4.5E-02  OK|
 | V-Mom                | 0.97 | 1.2E-04 | 1.1E-03 |       3.0E-02  OK|
 | W-Mom                | 0.96 | 7.7E-05 | 8.5E-04 |       4.1E-02  OK|
 | P-Mass               | 0.96 | 2.5E-05 | 2.4E-04 |  8.5  8.0E-02  OK|
 +----------------------+------+---------+---------+------------------+
 | H-Energy             | 0.97 | 3.4E-04 | 4.0E-03 |  5.3  4.9E-02  OK|
 +----------------------+------+---------+---------+------------------+
 | K-TurbKE             | 0.95 | 4.0E-04 | 2.3E-03 |  5.4  4.3E-02  OK|
 | E-Diss.K             | 0.95 | 5.7E-04 | 6.9E-03 |  8.2  1.4E-02  OK|
 +----------------------+------+---------+---------+------------------+

 ======================================================================
 |                        Timescale Information                       |
 ----------------------------------------------------------------------
 |       Equation       |         Type          |      Timescale      |
 +----------------------+-----------------------+---------------------+
 | U-Mom                | Auto Timescale        |     1.46891E-01     |
 | V-Mom                | Auto Timescale        |     1.46891E-01     |
 | W-Mom                | Auto Timescale        |     1.46891E-01     |
 +----------------------+-----------------------+---------------------+
 | H-Energy             | Auto Timescale        |     1.46891E-01     |
 +----------------------+-----------------------+---------------------+
 | K-TurbKE             | Auto Timescale        |     1.46891E-01     |
 | E-Diss.K             | Auto Timescale        |     1.46891E-01     |
 +----------------------+-----------------------+---------------------+

 ======================================================================
 OUTER LOOP ITERATION =  491 (   39) CPU SECONDS = 3.578E+02 (3.441E+01)
 ----------------------------------------------------------------------
 |       Equation       | Rate | RMS Res | Max Res |  Linear Solution |
 +----------------------+------+---------+---------+------------------+
 | U-Mom                | 0.97 | 1.0E-04 | 1.0E-03 |       4.1E-02  OK|
 | V-Mom                | 0.97 | 1.2E-04 | 1.1E-03 |       3.1E-02  OK|
 | W-Mom                | 0.96 | 7.4E-05 | 7.9E-04 |       4.1E-02  OK|
 | P-Mass               | 0.96 | 2.4E-05 | 2.5E-04 |  8.5  8.0E-02  OK|
 +----------------------+------+---------+---------+------------------+
 | H-Energy             | 0.97 | 3.2E-04 | 3.8E-03 |  5.4  4.9E-02  OK|
 +----------------------+------+---------+---------+------------------+
 | K-TurbKE             | 0.95 | 3.8E-04 | 2.2E-03 |  5.4  4.2E-02  OK|
 | E-Diss.K             | 0.94 | 5.4E-04 | 6.7E-03 |  8.2  1.4E-02  OK|
 +----------------------+------+---------+---------+------------------+

 ======================================================================
 OUTER LOOP ITERATION =  492 (   40) CPU SECONDS = 3.587E+02 (3.529E+01)
 ----------------------------------------------------------------------
 |       Equation       | Rate | RMS Res | Max Res |  Linear Solution |
 +----------------------+------+---------+---------+------------------+
 | U-Mom                | 0.97 | 1.0E-04 | 9.8E-04 |       3.7E-02  OK|
 | V-Mom                | 0.97 | 1.2E-04 | 1.1E-03 |       3.2E-02  OK|
 | W-Mom                | 0.96 | 7.1E-05 | 7.5E-04 |       4.1E-02  OK|
 | P-Mass               | 0.96 | 2.3E-05 | 2.5E-04 |  8.5  8.0E-02  OK|
 +----------------------+------+---------+---------+------------------+
 | H-Energy             | 0.96 | 3.1E-04 | 3.8E-03 |  5.4  5.0E-02  OK|
 +----------------------+------+---------+---------+------------------+
 | K-TurbKE             | 0.95 | 3.6E-04 | 2.2E-03 |  5.4  4.2E-02  OK|
 | E-Diss.K             | 0.94 | 5.0E-04 | 6.4E-03 |  8.2  1.4E-02  OK|
 +----------------------+------+---------+---------+------------------+

 ======================================================================
 OUTER LOOP ITERATION =  493 (   41) CPU SECONDS = 3.596E+02 (3.615E+01)
 ----------------------------------------------------------------------
 |       Equation       | Rate | RMS Res | Max Res |  Linear Solution |
 +----------------------+------+---------+---------+------------------+
 | U-Mom                | 0.98 | 9.9E-05 | 9.3E-04 |       3.4E-02  OK|
 | V-Mom                | 0.97 | 1.1E-04 | 1.1E-03 |       3.3E-02  OK|
 | W-Mom                | 0.96 | 6.8E-05 | 7.2E-04 |       4.1E-02  OK|
 | P-Mass               | 0.96 | 2.2E-05 | 2.3E-04 |  8.5  8.1E-02  OK|
 +----------------------+------+---------+---------+------------------+
 | H-Energy             | 0.96 | 3.0E-04 | 3.6E-03 |  5.3  5.0E-02  OK|
 +----------------------+------+---------+---------+------------------+
 | K-TurbKE             | 0.95 | 3.4E-04 | 2.2E-03 |  5.4  4.1E-02  OK|
 | E-Diss.K             | 0.94 | 4.7E-04 | 6.0E-03 |  8.2  1.4E-02  OK|
 +----------------------+------+---------+---------+------------------+

 ======================================================================
 OUTER LOOP ITERATION =  494 (   42) CPU SECONDS = 3.605E+02 (3.702E+01)
 ----------------------------------------------------------------------
 |       Equation       | Rate | RMS Res | Max Res |  Linear Solution |
 +----------------------+------+---------+---------+------------------+
 | U-Mom                | 0.98 | 9.6E-05 | 8.8E-04 |       3.2E-02  OK|
 | V-Mom                | 0.97 | 1.1E-04 | 1.1E-03 |       3.3E-02  OK|
 | W-Mom                | 0.96 | 6.5E-05 | 7.3E-04 |       4.0E-02  OK|
 | P-Mass               | 0.96 | 2.1E-05 | 2.0E-04 |  8.5  8.1E-02  OK|
 +----------------------+------+---------+---------+------------------+
 | H-Energy             | 0.96 | 2.9E-04 | 3.7E-03 |  5.3  5.0E-02  OK|
 +----------------------+------+---------+---------+------------------+
 | K-TurbKE             | 0.95 | 3.2E-04 | 2.2E-03 |  5.4  4.1E-02  OK|
 | E-Diss.K             | 0.94 | 4.4E-04 | 5.4E-03 |  8.3  1.4E-02  OK|
 +----------------------+------+---------+---------+------------------+

 ======================================================================
 OUTER LOOP ITERATION =  495 (   43) CPU SECONDS = 3.613E+02 (3.788E+01)
 ----------------------------------------------------------------------
 |       Equation       | Rate | RMS Res | Max Res |  Linear Solution |
 +----------------------+------+---------+---------+------------------+
 | U-Mom                | 0.98 | 9.4E-05 | 8.3E-04 |       3.1E-02  OK|
 | V-Mom                | 0.97 | 1.1E-04 | 1.1E-03 |       3.3E-02  OK|
 | W-Mom                | 0.96 | 6.3E-05 | 7.5E-04 |       3.9E-02  OK|
 | P-Mass               | 0.97 | 2.0E-05 | 1.8E-04 |  8.5  8.2E-02  OK|
 +----------------------+------+---------+---------+------------------+
[...]
 +----------------------+------+---------+---------+------------------+
 | H-Energy             | 0.95 | 1.2E-04 | 1.4E-03 |  5.4  4.2E-02  OK|
 +----------------------+------+---------+---------+------------------+
 | K-TurbKE             | 0.97 | 1.3E-04 | 1.2E-03 |  5.3  3.6E-02  OK|
 | E-Diss.K             | 0.96 | 1.7E-04 | 2.1E-03 |  8.3  1.2E-02  OK|
 +----------------------+------+---------+---------+------------------+

 ======================================================================
 OUTER LOOP ITERATION =  515 (   63) CPU SECONDS = 3.780E+02 (5.452E+01)
 ----------------------------------------------------------------------
 |       Equation       | Rate | RMS Res | Max Res |  Linear Solution |
 +----------------------+------+---------+---------+------------------+
 | U-Mom                | 0.97 | 5.8E-05 | 1.2E-03 |       1.4E-02  OK|
 | V-Mom                | 0.96 | 5.8E-05 | 9.3E-04 |       1.4E-02  OK|
 | W-Mom                | 0.94 | 2.8E-05 | 4.3E-04 |       1.5E-02  OK|
 | P-Mass               | 0.99 | 1.4E-05 | 1.5E-04 | 12.2  4.0E-02  OK|
 +----------------------+------+---------+---------+------------------+
 | H-Energy             | 0.95 | 1.1E-04 | 1.4E-03 |  5.3  4.3E-02  OK|
 +----------------------+------+---------+---------+------------------+
 | K-TurbKE             | 0.98 | 1.3E-04 | 1.2E-03 |  5.4  3.7E-02  OK|
 | E-Diss.K             | 0.96 | 1.6E-04 | 1.9E-03 |  8.3  1.3E-02  OK|
 +----------------------+------+---------+---------+------------------+

 ======================================================================
 |                        Timescale Information                       |
 ----------------------------------------------------------------------
 |       Equation       |         Type          |      Timescale      |
 +----------------------+-----------------------+---------------------+
 | U-Mom                | Auto Timescale        |     1.42370E-01     |
 | V-Mom                | Auto Timescale        |     1.42370E-01     |
 | W-Mom                | Auto Timescale        |     1.42370E-01     |
 +----------------------+-----------------------+---------------------+
 | H-Energy             | Auto Timescale        |     1.42370E-01     |
 +----------------------+-----------------------+---------------------+
 | K-TurbKE             | Auto Timescale        |     1.42370E-01     |
 | E-Diss.K             | Auto Timescale        |     1.42370E-01     |
 +----------------------+-----------------------+---------------------+

 ======================================================================
 OUTER LOOP ITERATION =  516 (   64) CPU SECONDS = 3.788E+02 (5.534E+01)
 ----------------------------------------------------------------------
 |       Equation       | Rate | RMS Res | Max Res |  Linear Solution |
 +----------------------+------+---------+---------+------------------+
 | U-Mom                | 0.97 | 5.6E-05 | 1.2E-03 |       1.4E-02  OK|
 | V-Mom                | 0.97 | 5.6E-05 | 5.1E-04 |       1.5E-02  OK|
 | W-Mom                | 0.94 | 2.6E-05 | 3.8E-04 |       1.5E-02  OK|
 | P-Mass               | 0.99 | 1.4E-05 | 1.4E-04 | 12.2  4.2E-02  OK|
 +----------------------+------+---------+---------+------------------+
 | H-Energy             | 0.96 | 1.1E-04 | 1.4E-03 |  5.3  4.2E-02  OK|
 +----------------------+------+---------+---------+------------------+
 | K-TurbKE             | 0.98 | 1.3E-04 | 1.1E-03 |  5.4  3.8E-02  OK|
 | E-Diss.K             | 0.96 | 1.5E-04 | 1.9E-03 |  8.3  1.4E-02  OK|
 +----------------------+------+---------+---------+------------------+

 ======================================================================
 OUTER LOOP ITERATION =  517 (   65) CPU SECONDS = 3.796E+02 (5.616E+01)
 ----------------------------------------------------------------------
 |       Equation       | Rate | RMS Res | Max Res |  Linear Solution |
 +----------------------+------+---------+---------+------------------+
 | U-Mom                | 0.97 | 5.4E-05 | 1.0E-03 |       1.4E-02  OK|
 | V-Mom                | 0.97 | 5.4E-05 | 4.2E-04 |       1.5E-02  OK|
 | W-Mom                | 0.94 | 2.4E-05 | 3.3E-04 |       1.5E-02  OK|
 | P-Mass               | 0.99 | 1.4E-05 | 1.1E-04 | 12.2  4.3E-02  OK|
 +----------------------+------+---------+---------+------------------+
 | H-Energy             | 0.96 | 1.0E-04 | 1.3E-03 |  5.4  4.2E-02  OK|
 +----------------------+------+---------+---------+------------------+
 | K-TurbKE             | 0.98 | 1.2E-04 | 1.1E-03 |  5.4  3.9E-02  OK|
 | E-Diss.K             | 0.96 | 1.5E-04 | 2.0E-03 |  8.2  1.5E-02  OK|
 +----------------------+------+---------+---------+------------------+

 ======================================================================
 OUTER LOOP ITERATION =  518 (   66) CPU SECONDS = 3.804E+02 (5.699E+01)
 ----------------------------------------------------------------------
 |       Equation       | Rate | RMS Res | Max Res |  Linear Solution |
 +----------------------+------+---------+---------+------------------+
 | U-Mom                | 0.97 | 5.3E-05 | 8.5E-04 |       1.5E-02  OK|
 | V-Mom                | 0.98 | 5.3E-05 | 4.1E-04 |       1.5E-02  OK|
 | W-Mom                | 0.94 | 2.3E-05 | 2.8E-04 |       1.5E-02  OK|
 | P-Mass               | 0.99 | 1.4E-05 | 1.1E-04 | 12.2  4.4E-02  OK|
 +----------------------+------+---------+---------+------------------+
 | H-Energy             | 0.96 | 9.6E-05 | 1.3E-03 |  5.3  4.2E-02  OK|
 +----------------------+------+---------+---------+------------------+
 | K-TurbKE             | 0.98 | 1.2E-04 | 1.1E-03 |  5.3  4.1E-02  OK|
 | E-Diss.K             | 0.97 | 1.4E-04 | 1.9E-03 |  8.3  1.6E-02  OK|
 +----------------------+------+---------+---------+------------------+
                   
 CFD Solver finished: Thu Dec  6 14:35:05 2018
 CFD Solver wall clock seconds: 5.4404E+01

 ======================================================================
              Termination and Interrupt Condition Summary
 ======================================================================
    
 CFD Solver: All target criteria reached
   (Equation residuals)

 ======================================================================
              Boundary Flow and Total Source Term Summary
 ======================================================================

 +--------------------------------------------------------------------+
 |                               U-Mom                                |
 +--------------------------------------------------------------------+
 Boundary         : Default Domain Default                  6.0586E+04
 Boundary         : in1                                     4.3876E-05
 Boundary         : in2                                    -5.9870E+04
 Boundary         : out                                    -6.3730E+02
                                                           -----------
 Domain Imbalance :                                         7.8260E+01

 +--------------------------------------------------------------------+
 |                               V-Mom                                |
 +--------------------------------------------------------------------+
 Boundary         : Default Domain Default                 -2.4024E+04
 Boundary         : in1                                     8.3954E+04
 Boundary         : in2                                    -5.9870E+04
 Boundary         : out                                    -6.0325E+01
                                                           -----------
 Domain Imbalance :                                         2.1370E-01

 +--------------------------------------------------------------------+
 |                               W-Mom                                |
 +--------------------------------------------------------------------+
 Boundary         : Default Domain Default                 -1.3033E+04
 Boundary         : in1                                    -1.8672E-05
 Boundary         : in2                                     2.5130E-03
 Boundary         : out                                     1.3018E+04
                                                           -----------
 Domain Imbalance :                                        -1.4988E+01

 +--------------------------------------------------------------------+
 |                               P-Mass                               |
 +--------------------------------------------------------------------+
 Boundary         : in1                                     1.5000E+03
 Boundary         : in2                                     1.5000E+03
 Boundary         : out                                    -2.9997E+03
                                                           -----------
 Domain Imbalance :                                         3.0737E-01

 +--------------------------------------------------------------------+
 |                              H-Energy                              |
 +--------------------------------------------------------------------+
 Boundary         : in1                                     1.0569E+08
 Boundary         : in2                                    -8.2484E+07
 Boundary         : out                                    -2.5783E+07
                                                           -----------
 Domain Imbalance :                                        -2.5747E+06


 +--------------------------------------------------------------------+
 |                     Normalised Imbalance Summary                   |
 +--------------------------------------------------------------------+
 |       Equation       |      Maximum Flow     |     Imbalance (%)   |
 +--------------------------------------------------------------------+
 | U-Mom                |       8.3954E+04      |        0.0932       |
 | V-Mom                |       8.3954E+04      |        0.0003       |
 | W-Mom                |       8.3954E+04      |       -0.0179       |
 | P-Mass               |       2.9997E+03      |        0.0102       |
 +----------------------+-----------------------+---------------------+
 | H-Energy             |       1.0569E+08      |       -2.4361       |
 +----------------------+-----------------------+---------------------+

 ======================================================================
                     Wall Force and Moment Summary
 ======================================================================
                                                                          
 Notes:
 1. Pressure integrals exclude the reference pressure.  To include
    it, set the expert parameter 'include pref in forces = t'.


 +--------------------------------------------------------------------+
 |                      Pressure Force On Walls                       |
 +--------------------------------------------------------------------+
                                    X-Comp.      Y-Comp.      Z-Comp.

 Domain Group: Default Domain

 Default Domain Default          -6.0749E+04   2.3868E+04   1.3013E+04
                                  -----------  -----------  -----------
 Domain Group Totals :           -6.0749E+04   2.3868E+04   1.3013E+04


 +--------------------------------------------------------------------+
 |                       Viscous Force On Walls                       |
 +--------------------------------------------------------------------+
                                    X-Comp.      Y-Comp.      Z-Comp.

 Domain Group: Default Domain

 Default Domain Default           1.6311E+02   1.5558E+02   2.0713E+01
                                  -----------  -----------  -----------
 Domain Group Totals :            1.6311E+02   1.5558E+02   2.0713E+01


 +--------------------------------------------------------------------+
 |                      Pressure Moment On Walls                      |
 +--------------------------------------------------------------------+
                                    X-Comp.      Y-Comp.      Z-Comp.

 Domain Group: Default Domain

 Default Domain Default          -2.3800E+04  -5.7800E+04  -1.5086E+05
                                  -----------  -----------  -----------
 Domain Group Totals :           -2.3800E+04  -5.7800E+04  -1.5086E+05


 +--------------------------------------------------------------------+
 |                       Viscous Moment On Walls                      |
 +--------------------------------------------------------------------+
                                    X-Comp.      Y-Comp.      Z-Comp.

 Domain Group: Default Domain

 Default Domain Default           7.9960E+01   1.3155E+02  -7.2384E+03
                                  -----------  -----------  -----------
 Domain Group Totals :            7.9960E+01   1.3155E+02  -7.2384E+03


 +--------------------------------------------------------------------+
 |                   Locations of Maximum Residuals                   |
 +--------------------------------------------------------------------+
 |       Equation       |      Domain Name      |     Node Number     |
 +--------------------------------------------------------------------+
 | U-Mom                | Default Domain        |          14395      |
 | V-Mom                | Default Domain        |          14306      |
 | W-Mom                | Default Domain        |          13468      |
 | P-Mass               | Default Domain        |          15765      |
 +----------------------+-----------------------+---------------------+
 | H-Energy             | Default Domain        |           1379      |
 +----------------------+-----------------------+---------------------+
 | K-TurbKE             | Default Domain        |           5589      |
 | E-Diss.K             | Default Domain        |          15194      |
 +----------------------+-----------------------+---------------------+

 ======================================================================
 |                     False Transient Information                    |
 +--------------------------------------------------------------------+
 |       Equation       |         Type          | Elapsed Pseudo-Time |
 +--------------------------------------------------------------------+
 | U-Mom                | Auto Timescale        |     9.82088E+00     |
 | V-Mom                | Auto Timescale        |     9.82088E+00     |
 | W-Mom                | Auto Timescale        |     9.82088E+00     |
 +----------------------+-----------------------+---------------------+
 | H-Energy             | Auto Timescale        |     9.82088E+00     |
 +----------------------+-----------------------+---------------------+
 | K-TurbKE             | Auto Timescale        |     9.82088E+00     |
 | E-Diss.K             | Auto Timescale        |     9.82088E+00     |
 +----------------------+-----------------------+---------------------+

 +--------------------------------------------------------------------+
 |                     Average Scale Information                      |
 +--------------------------------------------------------------------+

 Domain Name : Default Domain
     Global Length                                         = 3.2201E+00
     Minimum Extent                                        = 4.0000E+00
     Maximum Extent                                        = 5.1811E+00
     Density                                               = 9.9700E+02
     Dynamic Viscosity                                     = 8.8990E-04
     Velocity                                              = 7.0559E+00
     Advection Time                                        = 4.5637E-01
     Reynolds Number                                       = 2.5455E+07
     Thermal Conductivity                                  = 6.0690E-01
     Specific Heat Capacity at Constant Pressure           = 4.1817E+03
     Prandtl Number                                        = 6.1316E+00
     Temperature Range                                     = 3.0145E+01

 +--------------------------------------------------------------------+
 |                     Variable Range Information                     |
 +--------------------------------------------------------------------+

 Domain Name : Default Domain
 +--------------------------------------------------------------------+
 |      Variable Name                         |    min    |    max    |
 +--------------------------------------------------------------------+
 | Density                                    |  9.97E+02 |  9.97E+02 |
 | Specific Heat Capacity at Constant Pressure|  4.18E+03 |  4.18E+03 |
 | Dynamic Viscosity                          |  8.90E-04 |  8.90E-04 |
 | Thermal Conductivity                       |  6.07E-01 |  6.07E-01 |
 | Static Entropy                             | -1.90E+02 |  2.31E+02 |
 | Velocity u                                 | -8.80E+00 |  8.57E+00 |
 | Velocity v                                 | -8.73E+00 |  8.88E+00 |
 | Velocity w                                 | -6.13E+00 |  2.50E+00 |
 | Pressure                                   | -1.41E+04 |  1.08E+05 |
 | Turbulence Kinetic Energy                  |  3.65E-04 |  4.94E+00 |
 | Turbulence Eddy Dissipation                |  2.34E-03 |  7.33E+01 |
 | Eddy Viscosity                             |  1.87E-03 |  3.66E+02 |
 | Temperature                                |  2.85E+02 |  3.15E+02 |
 | Static Enthalpy                            | -5.53E+04 |  7.08E+04 |
 +--------------------------------------------------------------------+

 +--------------------------------------------------------------------+
 |               CPU Requirements of Numerical Solution               |
 +--------------------------------------------------------------------+

 Subsystem Name                  Discretization       Linear Solution
                                (secs.   %total)     (secs.   %total) 
 ----------------------------------------------------------------------
 Momentum and Mass              1.95E+01  32.2 %     4.48E+00   7.4 %
 Heat Transfer                  6.49E+00  10.7 %     1.95E+00   3.2 %
 TurbKE and Diss.K              1.06E+01  17.5 %     4.57E+00   7.5 %
                                -------- -------     --------  ------
 Subsystem Summary              3.66E+01  60.4 %     1.10E+01  18.1 %

 File Reading                   3.40E-02    0.1 %
 Search Calculations            3.00E-03    0.0 %
 Variable Updates               6.47E+00   10.7 %
 File Writing                   2.55E-01    0.4 %
 Miscellaneous                  6.25E+00   10.3 %
                                --------
 Total                          6.06E+01

 +--------------------------------------------------------------------+
 |                   Job Information at End of Run                    |
 +--------------------------------------------------------------------+

 Host computer:  ENPC-LAB137 (PID:13880)

 Job finished:   Thu Dec  6 14:35:08 2018

 Total wall clock time: 6.061E+01 seconds
             or: (          0:         0:         1:     0.610 )
                 (       Days:     Hours:   Minutes:   Seconds )

End of solution stage.

 +--------------------------------------------------------------------+
 | The results from this run of the ANSYS CFX Solver have been        |
 | written to                                                         |
 | H:/dos/CFD/CW/CFD-Static-Mixer/StaticMixerDX_pending/dp7_CFX_Solu- |
 | tion/Fluid Flow CFX_009.res                                        |
 +--------------------------------------------------------------------+


 +--------------------------------------------------------------------+
 | For CFX runs launched from Workbench, the final locations of       |
 | directories and files generated may differ from those shown.       |
 +--------------------------------------------------------------------+


This run of the ANSYS CFX Solver has finished.
