 This run of the CFX Release 19.1 Solver started at 10:57:26 on 05 Dec
 2018 by user jc2182 on ENPC-LAB124 (intel_xeon64.sse2_winnt) using the
 command:
 
  "C:\Program Files\ANSYS Inc\v191\CFX\bin\perllib\cfx5solve.pl" -batch
    -ccl runInput.ccl -fullname "Fluid Flow CFX_004"
 
 Release 19.1
 
  Point Releases and Patches installed:
  ANSYS, Inc. Products Release 19.1
  SpaceClaim Release 19.1
  Autodyn Release 19.1
  LS-DYNA Release 19.1
  CFD-Post only Release 19.1
  CFX (includes CFD-Post) Release 19.1
  Chemkin Release 19.1
  EnSight Release 19.1
  FENSAP-ICE Release 19.1
  Fluent (includes CFD-Post) Release 19.1
  Forte Release 19.1
  Polyflow (includes CFD-Post) Release 19.1
  TurboGrid Release 19.1
  ICEM CFD Release 19.1
  Customization Files for User Programmable Features Release 19.1
  Mechanical Products Release 19.1
  Icepak (includes CFD-Post) Release 19.1
  Remote Solve Manager Standalone Services Release 19.1
  ACIS Geometry Interface Release 19.1
  Catia, Version 5 Geometry Interface Release 19.1
  NX Geometry Interface Release 19.1
  Parasolid Geometry Interface  Release 19.1
  ANSYS, Inc. License Manager Release 19.1
 
 Setting up CFX Solver run ...
 
 
 +--------------------------------------------------------------------+
 |                                                                    |
 |                    CFX Command Language for Run                    |
 |                                                                    |
 +--------------------------------------------------------------------+
 
 LIBRARY:
   CEL:
     EXPRESSIONS:
       inMassFlow = 1500 [kg s^-1]
     END
   END
   MATERIAL: Water
     Material Description = Water (liquid)
     Material Group = Water Data, Constant Property Liquids
     Option = Pure Substance
     Thermodynamic State = Liquid
     PROPERTIES:
       Option = General Material
       EQUATION OF STATE:
         Density = 997.0 [kg m^-3]
         Molar Mass = 18.02 [kg kmol^-1]
         Option = Value
       END
       SPECIFIC HEAT CAPACITY:
         Option = Value
         Specific Heat Capacity = 4181.7 [J kg^-1 K^-1]
         Specific Heat Type = Constant Pressure
       END
       REFERENCE STATE:
         Option = Specified Point
         Reference Pressure = 1 [atm]
         Reference Specific Enthalpy = 0.0 [J/kg]
         Reference Specific Entropy = 0.0 [J/kg/K]
         Reference Temperature = 25 [C]
       END
       DYNAMIC VISCOSITY:
         Dynamic Viscosity = 8.899E-4 [kg m^-1 s^-1]
         Option = Value
       END
       THERMAL CONDUCTIVITY:
         Option = Value
         Thermal Conductivity = 0.6069 [W m^-1 K^-1]
       END
       ABSORPTION COEFFICIENT:
         Absorption Coefficient = 1.0 [m^-1]
         Option = Value
       END
       SCATTERING COEFFICIENT:
         Option = Value
         Scattering Coefficient = 0.0 [m^-1]
       END
       REFRACTIVE INDEX:
         Option = Value
         Refractive Index = 1.0 [m m^-1]
       END
       THERMAL EXPANSIVITY:
         Option = Value
         Thermal Expansivity = 2.57E-04 [K^-1]
       END
     END
   END
 END
 FLOW: Flow Analysis 1
   SOLUTION UNITS:
     Angle Units = [rad]
     Length Units = [m]
     Mass Units = [kg]
     Solid Angle Units = [sr]
     Temperature Units = [K]
     Time Units = [s]
   END
   ANALYSIS TYPE:
     Option = Steady State
     EXTERNAL SOLVER COUPLING:
       Option = None
     END
   END
   DOMAIN: Default Domain
     Coord Frame = Coord 0
     Domain Type = Fluid
     Location = B17
     BOUNDARY: Default Domain Default
       Boundary Type = WALL
       Location = F12.17,F14.17,F16.17,F19.17,F20.17,F21.17
       BOUNDARY CONDITIONS:
         HEAT TRANSFER:
           Option = Adiabatic
         END
         MASS AND MOMENTUM:
           Option = No Slip Wall
         END
         WALL ROUGHNESS:
           Option = Smooth Wall
         END
       END
     END
     BOUNDARY: in1
       Boundary Type = INLET
       Location = in1
       BOUNDARY CONDITIONS:
         FLOW DIRECTION:
           Option = Normal to Boundary Condition
         END
         FLOW REGIME:
           Option = Subsonic
         END
         HEAT TRANSFER:
           Option = Static Temperature
           Static Temperature = 315 [K]
         END
         MASS AND MOMENTUM:
           Mass Flow Rate = inMassFlow
           Mass Flow Rate Area = As Specified
           Option = Mass Flow Rate
         END
         TURBULENCE:
           Option = Medium Intensity and Eddy Viscosity Ratio
         END
       END
     END
     BOUNDARY: in2
       Boundary Type = INLET
       Location = in2
       BOUNDARY CONDITIONS:
         FLOW DIRECTION:
           Option = Normal to Boundary Condition
         END
         FLOW REGIME:
           Option = Subsonic
         END
         HEAT TRANSFER:
           Option = Static Temperature
           Static Temperature = 285 [K]
         END
         MASS AND MOMENTUM:
           Mass Flow Rate = inMassFlow
           Mass Flow Rate Area = As Specified
           Option = Mass Flow Rate
         END
         TURBULENCE:
           Option = Medium Intensity and Eddy Viscosity Ratio
         END
       END
     END
     BOUNDARY: out
       Boundary Type = OUTLET
       Location = out
       BOUNDARY CONDITIONS:
         FLOW REGIME:
           Option = Subsonic
         END
         MASS AND MOMENTUM:
           Option = Static Pressure
           Relative Pressure = 0 [Pa]
         END
       END
     END
     DOMAIN MODELS:
       BUOYANCY MODEL:
         Option = Non Buoyant
       END
       DOMAIN MOTION:
         Option = Stationary
       END
       MESH DEFORMATION:
         Option = None
       END
       REFERENCE PRESSURE:
         Reference Pressure = 1 [atm]
       END
     END
     FLUID DEFINITION: Fluid 1
       Material = Water
       Option = Material Library
       MORPHOLOGY:
         Option = Continuous Fluid
       END
     END
     FLUID MODELS:
       COMBUSTION MODEL:
         Option = None
       END
       HEAT TRANSFER MODEL:
         Option = Thermal Energy
       END
       THERMAL RADIATION MODEL:
         Option = None
       END
       TURBULENCE MODEL:
         Option = k epsilon
       END
       TURBULENT WALL FUNCTIONS:
         Option = Scalable
       END
     END
   END
   OUTPUT CONTROL:
     RESULTS:
       File Compression Level = Default
       Option = Standard
     END
   END
   SOLVER CONTROL:
     Turbulence Numerics = High Resolution
     ADVECTION SCHEME:
       Option = High Resolution
     END
     CONVERGENCE CONTROL:
       Length Scale Option = Conservative
       Maximum Number of Iterations = 100
       Minimum Number of Iterations = 5
       Timescale Control = Auto Timescale
       Timescale Factor = 1.0
     END
     CONVERGENCE CRITERIA:
       Residual Target = 1.E-4
       Residual Type = RMS
     END
     DYNAMIC MODEL CONTROL:
       Global Dynamic Model Control = On
     END
   END
 END
 COMMAND FILE:
   Version = 19.1
   Results Version = 19.1
 END
 PARAMETERIZATION:
   INPUT FIELD: inMassFlow
     Expression Name = inMassFlow
     Method = Expression
   END
 END
 SIMULATION CONTROL:
   EXECUTION CONTROL:
     EXECUTABLE SELECTION:
       Double Precision = No
       Large Problem = No
     END
     INTERPOLATOR STEP CONTROL:
       Runtime Priority = Standard
       MEMORY CONTROL:
         Memory Allocation Factor = 1.0
       END
     END
     PARALLEL HOST LIBRARY:
       HOST DEFINITION: enpclab124
         Remote Host Name = ENPC-LAB124
         Host Architecture String = winnt-amd64
         Installation Root = C:\Program Files\ANSYS Inc\v%v\CFX
       END
     END
     PARTITIONER STEP CONTROL:
       Multidomain Option = Automatic
       Runtime Priority = Standard
       MEMORY CONTROL:
         Memory Allocation Factor = 1.0
       END
       PARTITION SMOOTHING:
         Maximum Partition Smoothing Sweeps = 100
         Option = Smooth
       END
       PARTITIONING TYPE:
         MeTiS Type = k-way
         Option = MeTiS
         Partition Size Rule = Automatic
       END
     END
     RUN DEFINITION:
       Run Mode = Full
       Solver Input File = Fluid Flow CFX.def
       Solver Results File = \
         H:/dos/CFD/CW/CFD-Static-Mixer/StaticMixerDX_pending/dp1_CFX_Solution\
         /Fluid Flow CFX_004.res
       INITIAL VALUES SPECIFICATION:
         INITIAL VALUES CONTROL:
           Use Mesh From = Solver Input File
           Continue History From = Workbench Initial Values
         END
         INITIAL VALUES: Workbench Initial Values
           Option = Results File
           File Name = Fluid Flow CFX_003.res
         END
       END
     END
     SOLVER STEP CONTROL:
       Runtime Priority = Standard
       MEMORY CONTROL:
         Memory Allocation Factor = 1.0
       END
       PARALLEL ENVIRONMENT:
         Number of Processes = 1
         Start Method = Serial
       END
     END
   END
 END
 
 
 +--------------------------------------------------------------------+
 |                                                                    |
 |                  Interpolation of Initial Values                   |
 |                                                                    |
 +--------------------------------------------------------------------+
 
 


 +--------------------------------------------------------------------+
 |                                                                    |
 |                    ANSYS(R) CFX(R) Interpolator                    |
 |                                                                    |
 | Release 19.1                                                       |
 | Build 19.1 2018-04-17T13:27:50.069000                              |
 | Tue Apr 17 15:02:11 GMTDT 2018                                     |
 |                                                                    |
 |                        Executable Attributes                       |
 |                                                                    |
 |           single-64bit-int32-archfort-optimised-std-lcomp          |
 |                                                                    |
 | (C) 1996-2018 ANSYS, Inc.                                          |
 |                                                                    |
 | All rights reserved. Unauthorized use, distribution or duplication |
 | is prohibited. This product is subject to U.S. laws governing      |
 | export and re-export. For full Legal Notice, see documentation.    |
 +--------------------------------------------------------------------+




 +--------------------------------------------------------------------+
 |                  Job Information at Start of Run                   |
 +--------------------------------------------------------------------+

 Run mode:       serial run

 Host computer:  ENPC-LAB124 (PID:3492)

 Job started:    Wed Dec  5 10:57:27 2018


 +--------------------------------------------------------------------+
 |        Memory Allocated for Run  (Actual usage may be less)        |
 +--------------------------------------------------------------------+

           | Real       | Integer    | Character | Logical  | Double
 ----------+------------+------------+-----------+----------+----------
 Mwords    |       0.76 |       0.75 |      0.20 |     0.01 |     0.05
 Mbytes    |       2.91 |       2.86 |      0.19 |     0.04 |     0.36
 ----------+------------+------------+-----------+----------+----------


 +--------------------------------------------------------------------+
 |                  Host Memory Information (Mbytes)                  |
 +--------------------------------------------------------------------+
 |          Host           |     System     |   Allocated    |   %    |
 +-------------------------+----------------+----------------+--------+
 | ENPC-LAB124             |     16240.97   |         6.36   |   0.04 |
 +-------------------------+----------------+----------------+--------+

 ======================================================================
               Interpolating Onto Domain "Default Domain"
 ======================================================================

 Total Number of Nodes in the Target Domain              =        15627
 Bounding Box Volume of the Target Mesh                  =  9.60000E+01


 Checking all source domains from the source file:
   Target mesh is different from domain "Default Domain".

 Searching for Candidate Source Domains:
   Domain "Default Domain"
     Number of Mapped Nodes                     =        14009 ( 89.6%)
     Bounding Box Overlap Volume                =  9.60000E+01 (100.0%)
   Setting Up Unmapped Nodes:
     Number of Unmapped Nodes                   =         1618 ( 10.4%)

 Start interpolation of variables: 
   Source Domain Name                                    Mapped Nodes
   Default Domain                                        14009 ( 89.6%)

 +--------------------------------------------------------------------+
 |                     Variable Range Information                     |
 +--------------------------------------------------------------------+
 +--------------------------------------------------------------------+
 |      Variable Name                         |    min    |    max    |
 +--------------------------------------------------------------------+
 | Thermal Conductivity                       |  6.07E-01 |  6.07E-01 |
 | Courant Number                             |  1.30E+00 |  3.09E+01 |
 | Density                                    |  9.97E+02 |  9.97E+02 |
 | Static Enthalpy                            | -5.51E+04 |  7.06E+04 |
 | Static Entropy                             | -1.89E+02 |  2.30E+02 |
 | Pressure                                   | -5.21E+03 |  2.95E+04 |
 | Specific Heat Capacity at Constant Pressure|  4.18E+03 |  4.18E+03 |
 | Specific Heat Capacity at Constant Volume  |  4.18E+03 |  4.18E+03 |
 | Turbulence Eddy Dissipation                |  1.88E-04 |  7.12E+01 |
 | Turbulence Eddy Frequency                  |  4.89E+00 |  1.29E+03 |
 | Temperature                                |  2.85E+02 |  3.15E+02 |
 | Turbulence Kinetic Energy                  |  8.49E-05 |  2.14E+00 |
 | Velocity                                   |  3.48E-01 |  5.99E+00 |
 | Dynamic Viscosity                          |  8.90E-04 |  8.90E-04 |
 | Eddy Viscosity                             |  9.29E-04 |  1.63E+02 |
 +--------------------------------------------------------------------+

 +--------------------------------------------------------------------+
 |                 CPU Requirements of Interpolation                  |
 +--------------------------------------------------------------------+

 Interpolation Step              Time    Percentage
                                (secs.   %total)
 ----------------------------------------------------------------------
 Tree Setup                     2.65E-01    7.8 %
 Interpolation                  1.14E+00   33.3 %
 Unmatched Nodes                5.80E-02    1.7 %
 Miscellaneous                  1.95E+00   57.2 %
                                --------
 Total                          3.41E+00

 +--------------------------------------------------------------------+
 |                   Job Information at End of Run                    |
 +--------------------------------------------------------------------+

 Host computer:  ENPC-LAB124 (PID:3492)

 Job finished:   Wed Dec  5 10:57:30 2018

 Total wall clock time: 3.421E+00 seconds
             or: (          0:         0:         0:     3.421 )
                 (       Days:     Hours:   Minutes:   Seconds )

 
 +--------------------------------------------------------------------+
 |                                                                    |
 |                               Solver                               |
 |                                                                    |
 +--------------------------------------------------------------------+
 



 +--------------------------------------------------------------------+
 |                                                                    |
 |                       ANSYS(R) CFX(R) Solver                       |
 |                                                                    |
 | Release 19.1                                                       |
 | Build 19.1 2018-04-17T13:27:50.069000                              |
 | Tue Apr 17 15:02:11 GMTDT 2018                                     |
 |                                                                    |
 |                        Executable Attributes                       |
 |                                                                    |
 |           single-64bit-int32-archfort-optimised-std-lcomp          |
 |                                                                    |
 | (C) 1996-2018 ANSYS, Inc.                                          |
 |                                                                    |
 | All rights reserved. Unauthorized use, distribution or duplication |
 | is prohibited. This product is subject to U.S. laws governing      |
 | export and re-export. For full Legal Notice, see documentation.    |
 +--------------------------------------------------------------------+




 +--------------------------------------------------------------------+
 |                  Job Information at Start of Run                   |
 +--------------------------------------------------------------------+

 Run mode:       serial run

 Host computer:  ENPC-LAB124 (PID:1448)

 Job started:    Wed Dec  5 10:57:33 2018

 +--------------------------------------------------------------------+
 |                        License Information                         |
 +--------------------------------------------------------------------+
 
 License Cap:    ANSYS CFX Solver (Max 128K Nodes)
 License ID:     VIGO_campus_bath_ac_uk-SYSTEM-1456-382064


 +--------------------------------------------------------------------+
 |        Memory Allocated for Run  (Actual usage may be less)        |
 +--------------------------------------------------------------------+

           | Real       | Integer    | Character | Logical  | Double
 ----------+------------+------------+-----------+----------+----------
 Mwords    |      15.06 |       3.35 |      7.26 |     0.12 |     0.45
 Mbytes    |      57.43 |      12.79 |      6.93 |     0.46 |     3.44
 ----------+------------+------------+-----------+----------+----------


 +--------------------------------------------------------------------+
 |                  Host Memory Information (Mbytes)                  |
 +--------------------------------------------------------------------+
 |          Host           |     System     |   Allocated    |   %    |
 +-------------------------+----------------+----------------+--------+
 | ENPC-LAB124             |     16240.97   |        81.04   |   0.50 |
 +-------------------------+----------------+----------------+--------+


 +--------------------------------------------------------------------+
 |                     ****** Notice ******                           |
 | The Wall Heat Transfer Coefficient written to the results file for |
 | any turbulent phase with heat transfer is based on the turbulent   |
 | wall function coefficient. It is consistent with the Wall Heat Flux|
 | the wall temperature, and the Wall Adjacent Temperature            |
 | (near-wall temperature).  If you would like it to be based on a    |
 | user-specified bulk temperature instead, please set the expert     |
 | parameter "tbulk for htc = <value>".                               |
 +--------------------------------------------------------------------+

 +--------------------------------------------------------------------+
 |                      Topology Simplification                       |
 +--------------------------------------------------------------------+

 +--------------------------------------------------------------------+
 |                       ****** Warning ******                        |
 |                                                                    |
 | Topology simplification is activated with the following            |
 | restrictions:                                                      |
 |                                                                    |
 | - Mesh regions referenced only within User Fortran and NOT         |
 |   in the command file will cause the solver to stop.               |
 | - The solver will stop during any "Edit Run in Progress" step      |
 |   if new 2D regions are referenced.                                |
 +--------------------------------------------------------------------+

 +--------------------------------------------------------------------+
 |                          Mesh Statistics                           |
 +--------------------------------------------------------------------+
 | Domain Name          | Orthog. Angle | Exp. Factor  | Aspect Ratio |
 +----------------------+---------------+--------------+--------------+
 |                      | Minimum [deg] |   Maximum    |    Maximum   |
 +----------------------+---------------+--------------+--------------+
 | Default Domain       |       30.4 ok |        13 ok |        22 OK |
 +----------------------+---------------+--------------+--------------+
 |                      |  %!  %ok  %OK | %!  %ok  %OK | %!  %ok  %OK |
 +----------------------+---------------+--------------+--------------+
 | Default Domain       |   0    2   98 |  0    1   99 |  0    0  100 |
 +----------------------+---------------+--------------+--------------+

 Domain Name : Default Domain

     Total Number of Nodes                                =       15627

     Total Number of Elements                             =       49164
         Total Number of Tetrahedrons                     =       31179
         Total Number of Prisms                           =       17985

     Total Number of Faces                                =        4877

 +--------------------------------------------------------------------+
 |      Initial Conditions Supplied by Fields in the Input Files      |
 +--------------------------------------------------------------------+

 Domain Name : Default Domain
     Courant Number
     Eddy Viscosity
     Pressure
     Specific Heat Capacity at Constant Pressure
     Static Enthalpy
     Static Entropy
     Temperature
     Turbulence Eddy Dissipation
     Turbulence Eddy Frequency
     Turbulence Kinetic Energy
     Velocity

 +--------------------------------------------------------------------+
 |                     Average Scale Information                      |
 +--------------------------------------------------------------------+

 Domain Name : Default Domain
     Global Length                                         = 3.2195E+00
     Minimum Extent                                        = 4.0000E+00
     Maximum Extent                                        = 6.0000E+00
     Density                                               = 9.9700E+02
     Dynamic Viscosity                                     = 8.8990E-04
     Velocity                                              = 3.0134E+00
     Advection Time                                        = 1.0684E+00
     Reynolds Number                                       = 1.0869E+07
     Thermal Conductivity                                  = 6.0690E-01
     Specific Heat Capacity at Constant Pressure           = 4.1817E+03
     Prandtl Number                                        = 6.1316E+00
     Temperature Range                                     = 3.0042E+01

 +--------------------------------------------------------------------+
 |                Checking for Isolated Fluid Regions                 |
 +--------------------------------------------------------------------+
 
 No isolated fluid regions were found.

 +--------------------------------------------------------------------+
 |              The Equations Solved in This Calculation              |
 +--------------------------------------------------------------------+

 Subsystem : Momentum and Mass

   U-Mom
   V-Mom
   W-Mom
   P-Mass

 Subsystem : Heat Transfer

   H-Energy

 Subsystem : TurbKE and Diss.K

   K-TurbKE
   E-Diss.K
                   
 CFD Solver started: Wed Dec  5 10:57:36 2018


 +--------------------------------------------------------------------+
 |                       Convergence History                          |
 +--------------------------------------------------------------------+

 ======================================================================
 |                        Timescale Information                       |
 ----------------------------------------------------------------------
 |       Equation       |         Type          |      Timescale      |
 +----------------------+-----------------------+---------------------+
 | U-Mom                | Auto Timescale        |     3.35062E-01     |
 | V-Mom                | Auto Timescale        |     3.35062E-01     |
 | W-Mom                | Auto Timescale        |     3.35062E-01     |
 +----------------------+-----------------------+---------------------+
 | H-Energy             | Auto Timescale        |     3.35062E-01     |
 +----------------------+-----------------------+---------------------+
 | K-TurbKE             | Auto Timescale        |     3.35062E-01     |
 | E-Diss.K             | Auto Timescale        |     3.35062E-01     |
 +----------------------+-----------------------+---------------------+

 ======================================================================
 OUTER LOOP ITERATION =  148 (    1) CPU SECONDS = 5.309E+01 (3.386E+00)
 ----------------------------------------------------------------------
 |       Equation       | Rate | RMS Res | Max Res |  Linear Solution |
 +----------------------+------+---------+---------+------------------+
 | U-Mom                | 0.00 | 3.5E-03 | 4.5E-02 |       6.8E-02  OK|
 | V-Mom                | 0.00 | 4.0E-03 | 5.8E-02 |       6.4E-02  OK|
 | W-Mom                | 0.00 | 2.7E-03 | 3.5E-02 |       5.4E-02  OK|
 | P-Mass               | 0.00 | 1.6E-03 | 2.8E-02 |  5.3  8.2E-02  OK|
 +----------------------+------+---------+---------+------------------+
 | H-Energy             | 0.00 | 6.9E-03 | 8.7E-02 |  5.5  1.3E-02  OK|
 +----------------------+------+---------+---------+------------------+
 | K-TurbKE             | 0.00 | 5.3E-03 | 6.7E-02 |  5.5  2.6E-02  OK|
 | E-Diss.K             | 0.00 | 3.1E-02 | 8.4E-01 |  7.6  1.5E-03  OK|
 +----------------------+------+---------+---------+------------------+

 ======================================================================
 OUTER LOOP ITERATION =  149 (    2) CPU SECONDS = 5.370E+01 (4.000E+00)
 ----------------------------------------------------------------------
 |       Equation       | Rate | RMS Res | Max Res |  Linear Solution |
 +----------------------+------+---------+---------+------------------+
 | U-Mom                | 0.49 | 1.7E-03 | 1.7E-02 |       6.2E-02  OK|
 | V-Mom                | 0.44 | 1.8E-03 | 1.8E-02 |       5.5E-02  OK|
 | W-Mom                | 0.48 | 1.3E-03 | 3.6E-02 |       9.6E-02  OK|
 | P-Mass               | 0.35 | 5.7E-04 | 9.0E-03 |  9.6  3.6E-02  OK|
 +----------------------+------+---------+---------+------------------+
 | H-Energy             | 0.29 | 2.0E-03 | 3.7E-02 |  5.5  3.0E-02  OK|
 +----------------------+------+---------+---------+------------------+
 | K-TurbKE             | 2.89 | 1.5E-02 | 1.9E-01 |  5.5  2.0E-02  OK|
 | E-Diss.K             | 1.52 | 4.7E-02 | 1.0E+00 |  7.6  1.6E-03  OK|
 +----------------------+------+---------+---------+------------------+

 ======================================================================
 OUTER LOOP ITERATION =  150 (    3) CPU SECONDS = 5.426E+01 (4.557E+00)
 ----------------------------------------------------------------------
 |       Equation       | Rate | RMS Res | Max Res |  Linear Solution |
 +----------------------+------+---------+---------+------------------+
 | U-Mom                | 0.61 | 1.1E-03 | 1.1E-02 |       1.7E-01  ok|
 | V-Mom                | 0.58 | 1.0E-03 | 1.1E-02 |       1.6E-01  ok|
 | W-Mom                | 0.58 | 7.5E-04 | 1.5E-02 |       2.2E-01  ok|
 | P-Mass               | 0.66 | 3.8E-04 | 6.7E-03 |  5.3  9.8E-02  OK|
 +----------------------+------+---------+---------+------------------+
 | H-Energy             | 0.80 | 1.6E-03 | 2.3E-02 |  5.5  3.0E-02  OK|
 +----------------------+------+---------+---------+------------------+
 | K-TurbKE             | 0.46 | 7.0E-03 | 9.2E-02 |  5.5  2.5E-02  OK|
 | E-Diss.K             | 0.24 | 1.1E-02 | 2.5E-01 |  7.6  5.5E-03  OK|
 +----------------------+------+---------+---------+------------------+

 ======================================================================
 |                        Timescale Information                       |
 ----------------------------------------------------------------------
 |       Equation       |         Type          |      Timescale      |
 +----------------------+-----------------------+---------------------+
 | U-Mom                | Auto Timescale        |     3.43379E-01     |
 | V-Mom                | Auto Timescale        |     3.43379E-01     |
 | W-Mom                | Auto Timescale        |     3.43379E-01     |
 +----------------------+-----------------------+---------------------+
 | H-Energy             | Auto Timescale        |     3.43379E-01     |
 +----------------------+-----------------------+---------------------+
 | K-TurbKE             | Auto Timescale        |     3.43379E-01     |
 | E-Diss.K             | Auto Timescale        |     3.43379E-01     |
 +----------------------+-----------------------+---------------------+

 ======================================================================
 OUTER LOOP ITERATION =  151 (    4) CPU SECONDS = 5.479E+01 (5.092E+00)
 ----------------------------------------------------------------------
 |       Equation       | Rate | RMS Res | Max Res |  Linear Solution |
 +----------------------+------+---------+---------+------------------+
 | U-Mom                | 0.66 | 7.0E-04 | 8.0E-03 |       2.7E-02  OK|
 | V-Mom                | 0.73 | 7.5E-04 | 1.3E-02 |       2.7E-02  OK|
 | W-Mom                | 0.66 | 5.0E-04 | 5.8E-03 |       3.2E-02  OK|
 | P-Mass               | 0.62 | 2.3E-04 | 4.2E-03 |  9.6  3.3E-02  OK|
 +----------------------+------+---------+---------+------------------+
 | H-Energy             | 0.84 | 1.3E-03 | 1.9E-02 |  5.5  3.1E-02  OK|
 +----------------------+------+---------+---------+------------------+
 | K-TurbKE             | 0.62 | 4.3E-03 | 6.1E-02 |  5.5  2.2E-02  OK|
 | E-Diss.K             | 0.57 | 6.3E-03 | 1.8E-01 |  7.7  4.0E-03  OK|
 +----------------------+------+---------+---------+------------------+

 ======================================================================
 OUTER LOOP ITERATION =  152 (    5) CPU SECONDS = 5.534E+01 (5.635E+00)
 ----------------------------------------------------------------------
 |       Equation       | Rate | RMS Res | Max Res |  Linear Solution |
 +----------------------+------+---------+---------+------------------+
 | U-Mom                | 0.76 | 5.3E-04 | 8.9E-03 |       4.0E-02  OK|
 | V-Mom                | 0.86 | 6.4E-04 | 1.2E-02 |       3.8E-02  OK|
 | W-Mom                | 0.78 | 3.9E-04 | 5.5E-03 |       3.3E-02  OK|
 | P-Mass               | 0.47 | 1.1E-04 | 2.3E-03 |  9.6  6.7E-02  OK|
 +----------------------+------+---------+---------+------------------+
 | H-Energy             | 0.85 | 1.1E-03 | 1.5E-02 |  5.5  3.0E-02  OK|
 +----------------------+------+---------+---------+------------------+
 | K-TurbKE             | 0.24 | 1.0E-03 | 1.3E-02 |  5.5  3.7E-02  OK|
 | E-Diss.K             | 0.36 | 2.2E-03 | 7.6E-02 |  7.6  8.7E-03  OK|
 +----------------------+------+---------+---------+------------------+

 ======================================================================
 OUTER LOOP ITERATION =  153 (    6) CPU SECONDS = 5.588E+01 (6.183E+00)
 ----------------------------------------------------------------------
 |       Equation       | Rate | RMS Res | Max Res |  Linear Solution |
 +----------------------+------+---------+---------+------------------+
 | U-Mom                | 0.87 | 4.6E-04 | 1.1E-02 |       5.5E-02  OK|
 | V-Mom                | 0.89 | 5.7E-04 | 1.1E-02 |       5.0E-02  OK|
 | W-Mom                | 0.88 | 3.5E-04 | 5.9E-03 |       6.9E-02  OK|
 | P-Mass               | 0.75 | 8.3E-05 | 1.3E-03 |  9.6  9.1E-02  OK|
 +----------------------+------+---------+---------+------------------+
 | H-Energy             | 0.91 | 1.0E-03 | 1.2E-02 |  5.5  2.8E-02  OK|
 +----------------------+------+---------+---------+------------------+
 | K-TurbKE             | 0.72 | 7.5E-04 | 7.9E-03 |  5.5  4.9E-02  OK|
 | E-Diss.K             | 0.45 | 1.0E-03 | 3.8E-02 |  7.6  9.6E-03  OK|
 +----------------------+------+---------+---------+------------------+

 ======================================================================
 OUTER LOOP ITERATION =  154 (    7) CPU SECONDS = 5.644E+01 (6.735E+00)
 ----------------------------------------------------------------------
 |       Equation       | Rate | RMS Res | Max Res |  Linear Solution |
 +----------------------+------+---------+---------+------------------+
 | U-Mom                | 0.96 | 4.4E-04 | 1.3E-02 |       2.4E-02  OK|
 | V-Mom                | 0.92 | 5.3E-04 | 8.6E-03 |       2.2E-02  OK|
 | W-Mom                | 0.91 | 3.1E-04 | 5.9E-03 |       5.5E-02  OK|
 | P-Mass               | 1.15 | 9.5E-05 | 1.2E-03 | 13.8  3.3E-02  OK|
 +----------------------+------+---------+---------+------------------+
 | H-Energy             | 0.93 | 9.7E-04 | 1.2E-02 |  5.5  2.7E-02  OK|
 +----------------------+------+---------+---------+------------------+
 | K-TurbKE             | 1.07 | 8.0E-04 | 8.5E-03 |  5.5  4.8E-02  OK|
 | E-Diss.K             | 2.37 | 2.4E-03 | 6.2E-02 |  7.7  4.6E-03  OK|
 +----------------------+------+---------+---------+------------------+

 ======================================================================
 OUTER LOOP ITERATION =  155 (    8) CPU SECONDS = 5.700E+01 (7.297E+00)
 ----------------------------------------------------------------------
 |       Equation       | Rate | RMS Res | Max Res |  Linear Solution |
 +----------------------+------+---------+---------+------------------+
 | U-Mom                | 0.97 | 4.3E-04 | 1.4E-02 |       6.6E-02  OK|
 | V-Mom                | 0.93 | 4.9E-04 | 7.9E-03 |       6.1E-02  OK|
 | W-Mom                | 0.92 | 2.9E-04 | 5.4E-03 |       1.6E-01  ok|
 | P-Mass               | 1.23 | 1.2E-04 | 1.5E-03 |  9.6  9.9E-02  OK|
 +----------------------+------+---------+---------+------------------+
 | H-Energy             | 0.95 | 9.3E-04 | 1.8E-02 |  5.5  2.6E-02  OK|
 +----------------------+------+---------+---------+------------------+
 | K-TurbKE             | 1.03 | 8.2E-04 | 6.1E-03 |  5.5  5.0E-02  OK|
 | E-Diss.K             | 0.97 | 2.3E-03 | 5.6E-02 |  7.7  5.9E-03  OK|
 +----------------------+------+---------+---------+------------------+

 ======================================================================
 |                        Timescale Information                       |
 ----------------------------------------------------------------------
 |       Equation       |         Type          |      Timescale      |
 +----------------------+-----------------------+---------------------+
 | U-Mom                | Auto Timescale        |     3.34833E-01     |
 | V-Mom                | Auto Timescale        |     3.34833E-01     |
 | W-Mom                | Auto Timescale        |     3.34833E-01     |
 +----------------------+-----------------------+---------------------+
 | H-Energy             | Auto Timescale        |     3.34833E-01     |
 +----------------------+-----------------------+---------------------+
 | K-TurbKE             | Auto Timescale        |     3.34833E-01     |
 | E-Diss.K             | Auto Timescale        |     3.34833E-01     |
 +----------------------+-----------------------+---------------------+

 ======================================================================
 OUTER LOOP ITERATION =  156 (    9) CPU SECONDS = 5.755E+01 (7.845E+00)
 ----------------------------------------------------------------------
 |       Equation       | Rate | RMS Res | Max Res |  Linear Solution |
 +----------------------+------+---------+---------+------------------+
 | U-Mom                | 0.96 | 4.1E-04 | 1.3E-02 |       2.8E-02  OK|
 | V-Mom                | 0.96 | 4.7E-04 | 8.1E-03 |       2.6E-02  OK|
 | W-Mom                | 0.93 | 2.7E-04 | 4.9E-03 |       9.1E-02  OK|
 | P-Mass               | 0.96 | 1.1E-04 | 1.4E-03 | 13.8  3.3E-02  OK|
 +----------------------+------+---------+---------+------------------+
 | H-Energy             | 0.95 | 8.8E-04 | 1.8E-02 |  5.5  2.4E-02  OK|
 +----------------------+------+---------+---------+------------------+
 | K-TurbKE             | 1.03 | 8.4E-04 | 5.2E-03 |  5.5  5.0E-02  OK|
 | E-Diss.K             | 0.97 | 2.3E-03 | 5.3E-02 |  7.7  6.5E-03  OK|
 +----------------------+------+---------+---------+------------------+

 ======================================================================
 OUTER LOOP ITERATION =  157 (   10) CPU SECONDS = 5.811E+01 (8.410E+00)
 ----------------------------------------------------------------------
 |       Equation       | Rate | RMS Res | Max Res |  Linear Solution |
 +----------------------+------+---------+---------+------------------+
 | U-Mom                | 0.94 | 3.8E-04 | 9.2E-03 |       6.8E-02  OK|
 | V-Mom                | 0.95 | 4.5E-04 | 7.9E-03 |       6.2E-02  OK|
 | W-Mom                | 0.93 | 2.5E-04 | 5.0E-03 |       1.9E-01  ok|
 | P-Mass               | 1.05 | 1.2E-04 | 1.5E-03 |  9.6  9.7E-02  OK|
 +----------------------+------+---------+---------+------------------+
 | H-Energy             | 0.95 | 8.3E-04 | 1.9E-02 |  5.5  2.4E-02  OK|
 +----------------------+------+---------+---------+------------------+
 | K-TurbKE             | 1.02 | 8.6E-04 | 5.1E-03 |  5.5  5.0E-02  OK|
 | E-Diss.K             | 0.97 | 2.2E-03 | 5.1E-02 |  7.7  6.9E-03  OK|
 +----------------------+------+---------+---------+------------------+

 ======================================================================
 OUTER LOOP ITERATION =  158 (   11) CPU SECONDS = 5.865E+01 (8.953E+00)
 ----------------------------------------------------------------------
 |       Equation       | Rate | RMS Res | Max Res |  Linear Solution |
 +----------------------+------+---------+---------+------------------+
 | U-Mom                | 0.96 | 3.7E-04 | 8.2E-03 |       2.8E-02  OK|
 | V-Mom                | 0.97 | 4.4E-04 | 9.0E-03 |       2.6E-02  OK|
 | W-Mom                | 0.94 | 2.3E-04 | 5.2E-03 |       1.1E-01  ok|
 | P-Mass               | 0.88 | 1.0E-04 | 1.2E-03 | 13.8  3.4E-02  OK|
 +----------------------+------+---------+---------+------------------+
 | H-Energy             | 0.95 | 7.9E-04 | 2.2E-02 |  5.5  2.4E-02  OK|
 +----------------------+------+---------+---------+------------------+
 | K-TurbKE             | 1.01 | 8.6E-04 | 4.6E-03 |  5.5  4.9E-02  OK|
 | E-Diss.K             | 1.00 | 2.2E-03 | 5.0E-02 |  7.7  7.0E-03  OK|
 +----------------------+------+---------+---------+------------------+

 ======================================================================
 OUTER LOOP ITERATION =  159 (   12) CPU SECONDS = 5.921E+01 (9.512E+00)
 ----------------------------------------------------------------------
 |       Equation       | Rate | RMS Res | Max Res |  Linear Solution |
 +----------------------+------+---------+---------+------------------+
 | U-Mom                | 0.95 | 3.5E-04 | 8.4E-03 |       6.8E-02  OK|
 | V-Mom                | 0.96 | 4.2E-04 | 8.8E-03 |       6.3E-02  OK|
 | W-Mom                | 0.94 | 2.2E-04 | 5.3E-03 |       2.0E-01  ok|
 | P-Mass               | 1.01 | 1.0E-04 | 1.2E-03 |  9.6  9.9E-02  OK|
 +----------------------+------+---------+---------+------------------+
 | H-Energy             | 0.95 | 7.5E-04 | 2.1E-02 |  5.5  2.5E-02  OK|
 +----------------------+------+---------+---------+------------------+
 | K-TurbKE             | 0.97 | 8.4E-04 | 4.3E-03 |  5.5  4.9E-02  OK|
 | E-Diss.K             | 0.88 | 1.9E-03 | 4.3E-02 |  7.6  8.3E-03  OK|
 +----------------------+------+---------+---------+------------------+

 ======================================================================
 OUTER LOOP ITERATION =  160 (   13) CPU SECONDS = 5.975E+01 (1.005E+01)
 ----------------------------------------------------------------------
 |       Equation       | Rate | RMS Res | Max Res |  Linear Solution |
 +----------------------+------+---------+---------+------------------+
 | U-Mom                | 0.98 | 3.5E-04 | 8.4E-03 |       2.8E-02  OK|
 | V-Mom                | 0.96 | 4.0E-04 | 8.1E-03 |       2.7E-02  OK|
 | W-Mom                | 0.93 | 2.1E-04 | 5.3E-03 |       1.2E-01  ok|
 | P-Mass               | 0.87 | 9.1E-05 | 9.6E-04 | 13.8  3.4E-02  OK|
 +----------------------+------+---------+---------+------------------+
 | H-Energy             | 0.93 | 7.0E-04 | 1.8E-02 |  5.5  2.8E-02  OK|
 +----------------------+------+---------+---------+------------------+
 | K-TurbKE             | 0.98 | 8.2E-04 | 3.8E-03 |  5.5  4.6E-02  OK|
 | E-Diss.K             | 0.95 | 1.8E-03 | 4.0E-02 |  7.6  8.1E-03  OK|
 +----------------------+------+---------+---------+------------------+

 ======================================================================
 |                        Timescale Information                       |
 ----------------------------------------------------------------------
 |       Equation       |         Type          |      Timescale      |
 +----------------------+-----------------------+---------------------+
 | U-Mom                | Auto Timescale        |     3.21083E-01     |
 | V-Mom                | Auto Timescale        |     3.21083E-01     |
 | W-Mom                | Auto Timescale        |     3.21083E-01     |
 +----------------------+-----------------------+---------------------+
 | H-Energy             | Auto Timescale        |     3.21083E-01     |
 +----------------------+-----------------------+---------------------+
 | K-TurbKE             | Auto Timescale        |     3.21083E-01     |
 | E-Diss.K             | Auto Timescale        |     3.21083E-01     |
 +----------------------+-----------------------+---------------------+

 ======================================================================
 OUTER LOOP ITERATION =  161 (   14) CPU SECONDS = 6.032E+01 (1.061E+01)
 ----------------------------------------------------------------------
 |       Equation       | Rate | RMS Res | Max Res |  Linear Solution |
 +----------------------+------+---------+---------+------------------+
 | U-Mom                | 0.97 | 3.4E-04 | 8.3E-03 |       6.6E-02  OK|
 | V-Mom                | 0.94 | 3.8E-04 | 7.9E-03 |       6.2E-02  OK|
 | W-Mom                | 0.93 | 1.9E-04 | 5.4E-03 |       2.1E-01  ok|
 | P-Mass               | 1.00 | 9.1E-05 | 9.6E-04 |  9.6  9.7E-02  OK|
 +----------------------+------+---------+---------+------------------+
 | H-Energy             | 0.94 | 6.6E-04 | 1.6E-02 |  5.5  2.9E-02  OK|
 +----------------------+------+---------+---------+------------------+
 | K-TurbKE             | 0.96 | 7.9E-04 | 3.5E-03 |  5.5  4.3E-02  OK|
 | E-Diss.K             | 0.85 | 1.6E-03 | 3.4E-02 |  7.7  9.1E-03  OK|
 +----------------------+------+---------+---------+------------------+

 ======================================================================
 OUTER LOOP ITERATION =  162 (   15) CPU SECONDS = 6.087E+01 (1.117E+01)
 ----------------------------------------------------------------------
 |       Equation       | Rate | RMS Res | Max Res |  Linear Solution |
 +----------------------+------+---------+---------+------------------+
 | U-Mom                | 0.98 | 3.3E-04 | 8.8E-03 |       2.7E-02  OK|
 | V-Mom                | 0.94 | 3.5E-04 | 7.8E-03 |       2.6E-02  OK|
 | W-Mom                | 0.93 | 1.8E-04 | 5.4E-03 |       1.2E-01  ok|
 | P-Mass               | 0.87 | 7.9E-05 | 7.7E-04 | 13.8  3.3E-02  OK|
 +----------------------+------+---------+---------+------------------+
 | H-Energy             | 0.93 | 6.1E-04 | 1.9E-02 |  5.5  3.1E-02  OK|
 +----------------------+------+---------+---------+------------------+
 | K-TurbKE             | 0.98 | 7.7E-04 | 3.1E-03 |  5.5  4.3E-02  OK|
 | E-Diss.K             | 0.95 | 1.5E-03 | 3.3E-02 |  7.6  8.5E-03  OK|
 +----------------------+------+---------+---------+------------------+

 ======================================================================
 OUTER LOOP ITERATION =  163 (   16) CPU SECONDS = 6.144E+01 (1.174E+01)
 ----------------------------------------------------------------------
 |       Equation       | Rate | RMS Res | Max Res |  Linear Solution |
 +----------------------+------+---------+---------+------------------+
 | U-Mom                | 0.97 | 3.2E-04 | 9.0E-03 |       6.7E-02  OK|
 | V-Mom                | 0.94 | 3.3E-04 | 7.8E-03 |       6.4E-02  OK|
 | W-Mom                | 0.94 | 1.7E-04 | 5.4E-03 |       2.1E-01  ok|
 | P-Mass               | 0.99 | 7.8E-05 | 7.8E-04 |  9.6  9.9E-02  OK|
 +----------------------+------+---------+---------+------------------+
 | H-Energy             | 0.97 | 5.9E-04 | 2.0E-02 |  5.5  3.3E-02  OK|
 +----------------------+------+---------+---------+------------------+
 | K-TurbKE             | 0.98 | 7.5E-04 | 2.9E-03 |  5.5  4.3E-02  OK|
 | E-Diss.K             | 0.88 | 1.3E-03 | 2.9E-02 |  7.6  9.3E-03  OK|
 +----------------------+------+---------+---------+------------------+

 ======================================================================
 OUTER LOOP ITERATION =  164 (   17) CPU SECONDS = 6.199E+01 (1.228E+01)
 ----------------------------------------------------------------------
 |       Equation       | Rate | RMS Res | Max Res |  Linear Solution |
 +----------------------+------+---------+---------+------------------+
 | U-Mom                | 0.97 | 3.1E-04 | 8.9E-03 |       2.8E-02  OK|
 | V-Mom                | 0.95 | 3.2E-04 | 7.7E-03 |       2.7E-02  OK|
 | W-Mom                | 0.94 | 1.6E-04 | 5.4E-03 |       1.3E-01  ok|
 | P-Mass               | 0.88 | 6.9E-05 | 6.4E-04 | 13.8  3.4E-02  OK|
 +----------------------+------+---------+---------+------------------+
 | H-Energy             | 0.93 | 5.5E-04 | 1.8E-02 |  5.5  3.4E-02  OK|
 +----------------------+------+---------+---------+------------------+
 | K-TurbKE             | 0.99 | 7.5E-04 | 2.9E-03 |  5.5  4.3E-02  OK|
 | E-Diss.K             | 0.99 | 1.3E-03 | 2.9E-02 |  7.6  8.7E-03  OK|
 +----------------------+------+---------+---------+------------------+

 ======================================================================
 OUTER LOOP ITERATION =  165 (   18) CPU SECONDS = 6.255E+01 (1.285E+01)
 ----------------------------------------------------------------------
 |       Equation       | Rate | RMS Res | Max Res |  Linear Solution |
 +----------------------+------+---------+---------+------------------+
 | U-Mom                | 0.94 | 2.9E-04 | 8.1E-03 |       2.5E-02  OK|
 | V-Mom                | 0.94 | 3.0E-04 | 7.5E-03 |       2.5E-02  OK|
 | W-Mom                | 0.94 | 1.5E-04 | 5.2E-03 |       1.0E-01  ok|
 | P-Mass               | 1.00 | 6.9E-05 | 6.6E-04 | 13.8  3.3E-02  OK|
 +----------------------+------+---------+---------+------------------+
 | H-Energy             | 0.96 | 5.3E-04 | 1.9E-02 |  5.5  3.5E-02  OK|
 +----------------------+------+---------+---------+------------------+
 | K-TurbKE             | 0.99 | 7.4E-04 | 3.0E-03 |  5.5  4.3E-02  OK|
 | E-Diss.K             | 0.95 | 1.2E-03 | 2.7E-02 |  7.6  9.2E-03  OK|
 +----------------------+------+---------+---------+------------------+

 ======================================================================
 |                        Timescale Information                       |
 ----------------------------------------------------------------------
 |       Equation       |         Type          |      Timescale      |
 +----------------------+-----------------------+---------------------+
 | U-Mom                | Auto Timescale        |     3.08311E-01     |
 | V-Mom                | Auto Timescale        |     3.08311E-01     |
 | W-Mom                | Auto Timescale        |     3.08311E-01     |
 +----------------------+-----------------------+---------------------+
 | H-Energy             | Auto Timescale        |     3.08311E-01     |
 +----------------------+-----------------------+---------------------+
 | K-TurbKE             | Auto Timescale        |     3.08311E-01     |
 | E-Diss.K             | Auto Timescale        |     3.08311E-01     |
 +----------------------+-----------------------+---------------------+

 ======================================================================
 OUTER LOOP ITERATION =  166 (   19) CPU SECONDS = 6.312E+01 (1.342E+01)
 ----------------------------------------------------------------------
 |       Equation       | Rate | RMS Res | Max Res |  Linear Solution |
 +----------------------+------+---------+---------+------------------+
 | U-Mom                | 0.96 | 2.8E-04 | 7.6E-03 |       6.7E-02  OK|
 | V-Mom                | 0.96 | 2.9E-04 | 7.4E-03 |       6.4E-02  OK|
 | W-Mom                | 0.94 | 1.4E-04 | 5.0E-03 |       2.0E-01  ok|
 | P-Mass               | 0.93 | 6.4E-05 | 5.9E-04 |  9.6  1.0E-01  OK|
 +----------------------+------+---------+---------+------------------+
 | H-Energy             | 0.98 | 5.1E-04 | 1.7E-02 |  5.5  3.3E-02  OK|
 +----------------------+------+---------+---------+------------------+
 | K-TurbKE             | 0.97 | 7.2E-04 | 3.0E-03 |  5.5  4.2E-02  OK|
 | E-Diss.K             | 0.90 | 1.1E-03 | 2.3E-02 |  7.6  9.9E-03  OK|
 +----------------------+------+---------+---------+------------------+

 ======================================================================
 OUTER LOOP ITERATION =  167 (   20) CPU SECONDS = 6.366E+01 (1.396E+01)
 ----------------------------------------------------------------------
 |       Equation       | Rate | RMS Res | Max Res |  Linear Solution |
 +----------------------+------+---------+---------+------------------+
 | U-Mom                | 0.95 | 2.7E-04 | 7.0E-03 |       2.8E-02  OK|
 | V-Mom                | 0.95 | 2.7E-04 | 7.0E-03 |       2.8E-02  OK|
 | W-Mom                | 0.95 | 1.3E-04 | 4.7E-03 |       1.2E-01  ok|
 | P-Mass               | 0.89 | 5.7E-05 | 4.8E-04 | 13.8  3.5E-02  OK|
 +----------------------+------+---------+---------+------------------+
 | H-Energy             | 0.91 | 4.7E-04 | 1.6E-02 |  5.5  3.3E-02  OK|
 +----------------------+------+---------+---------+------------------+
 | K-TurbKE             | 0.98 | 7.0E-04 | 3.1E-03 |  5.5  4.1E-02  OK|
 | E-Diss.K             | 1.01 | 1.1E-03 | 2.4E-02 |  7.6  9.0E-03  OK|
 +----------------------+------+---------+---------+------------------+

 ======================================================================
 OUTER LOOP ITERATION =  168 (   21) CPU SECONDS = 6.423E+01 (1.453E+01)
 ----------------------------------------------------------------------
 |       Equation       | Rate | RMS Res | Max Res |  Linear Solution |
 +----------------------+------+---------+---------+------------------+
 | U-Mom                | 0.94 | 2.5E-04 | 6.4E-03 |       2.5E-02  OK|
 | V-Mom                | 0.95 | 2.6E-04 | 6.5E-03 |       2.5E-02  OK|
 | W-Mom                | 0.94 | 1.2E-04 | 4.2E-03 |       9.8E-02  OK|
 | P-Mass               | 0.99 | 5.6E-05 | 5.0E-04 | 13.8  3.3E-02  OK|
 +----------------------+------+---------+---------+------------------+
 | H-Energy             | 0.97 | 4.5E-04 | 1.5E-02 |  5.5  3.2E-02  OK|
 +----------------------+------+---------+---------+------------------+
 | K-TurbKE             | 0.98 | 6.9E-04 | 3.1E-03 |  5.5  4.2E-02  OK|
 | E-Diss.K             | 0.96 | 1.1E-03 | 2.2E-02 |  7.7  9.5E-03  OK|
 +----------------------+------+---------+---------+------------------+

 ======================================================================
 OUTER LOOP ITERATION =  169 (   22) CPU SECONDS = 6.480E+01 (1.510E+01)
 ----------------------------------------------------------------------
 |       Equation       | Rate | RMS Res | Max Res |  Linear Solution |
 +----------------------+------+---------+---------+------------------+
 | U-Mom                | 0.97 | 2.4E-04 | 6.0E-03 |       2.5E-02  OK|
 | V-Mom                | 0.97 | 2.5E-04 | 6.0E-03 |       2.5E-02  OK|
 | W-Mom                | 0.96 | 1.2E-04 | 4.4E-03 |       9.7E-02  OK|
 | P-Mass               | 0.93 | 5.2E-05 | 4.5E-04 | 13.8  3.5E-02  OK|
 +----------------------+------+---------+---------+------------------+
 | H-Energy             | 0.98 | 4.4E-04 | 1.2E-02 |  5.5  3.2E-02  OK|
 +----------------------+------+---------+---------+------------------+
 | K-TurbKE             | 0.97 | 6.7E-04 | 3.0E-03 |  5.5  4.1E-02  OK|
 | E-Diss.K             | 0.96 | 1.0E-03 | 2.1E-02 |  7.7  9.6E-03  OK|
 +----------------------+------+---------+---------+------------------+

 ======================================================================
 OUTER LOOP ITERATION =  170 (   23) CPU SECONDS = 6.537E+01 (1.567E+01)
 ----------------------------------------------------------------------
 |       Equation       | Rate | RMS Res | Max Res |  Linear Solution |
 +----------------------+------+---------+---------+------------------+
 | U-Mom                | 0.97 | 2.4E-04 | 5.4E-03 |       2.5E-02  OK|
 | V-Mom                | 0.96 | 2.4E-04 | 5.4E-03 |       2.5E-02  OK|
 | W-Mom                | 0.96 | 1.1E-04 | 4.3E-03 |       9.7E-02  OK|
 | P-Mass               | 0.94 | 4.9E-05 | 4.0E-04 | 13.8  3.5E-02  OK|
 +----------------------+------+---------+---------+------------------+
 | H-Energy             | 0.98 | 4.3E-04 | 1.1E-02 |  5.5  3.1E-02  OK|
 +----------------------+------+---------+---------+------------------+
 | K-TurbKE             | 0.97 | 6.5E-04 | 3.0E-03 |  5.5  4.1E-02  OK|
 | E-Diss.K             | 0.96 | 1.0E-03 | 2.0E-02 |  7.7  9.6E-03  OK|
 +----------------------+------+---------+---------+------------------+

 ======================================================================
 |                        Timescale Information                       |
 ----------------------------------------------------------------------
 |       Equation       |         Type          |      Timescale      |
 +----------------------+-----------------------+---------------------+
 | U-Mom                | Auto Timescale        |     2.96998E-01     |
 | V-Mom                | Auto Timescale        |     2.96998E-01     |
 | W-Mom                | Auto Timescale        |     2.96998E-01     |
 +----------------------+-----------------------+---------------------+
 | H-Energy             | Auto Timescale        |     2.96998E-01     |
 +----------------------+-----------------------+---------------------+
 | K-TurbKE             | Auto Timescale        |     2.96998E-01     |
 | E-Diss.K             | Auto Timescale        |     2.96998E-01     |
 +----------------------+-----------------------+---------------------+

 ======================================================================
 OUTER LOOP ITERATION =  171 (   24) CPU SECONDS = 6.594E+01 (1.624E+01)
 ----------------------------------------------------------------------
 |       Equation       | Rate | RMS Res | Max Res |  Linear Solution |
 +----------------------+------+---------+---------+------------------+
 | U-Mom                | 0.98 | 2.3E-04 | 4.9E-03 |       2.4E-02  OK|
 | V-Mom                | 0.96 | 2.3E-04 | 4.9E-03 |       2.4E-02  OK|
 | W-Mom                | 0.97 | 1.1E-04 | 4.2E-03 |       9.3E-02  OK|
 | P-Mass               | 0.95 | 4.7E-05 | 3.6E-04 | 13.8  3.5E-02  OK|
 +----------------------+------+---------+---------+------------------+
 | H-Energy             | 0.98 | 4.3E-04 | 1.1E-02 |  5.5  3.0E-02  OK|
 +----------------------+------+---------+---------+------------------+
 | K-TurbKE             | 0.97 | 6.3E-04 | 2.9E-03 |  5.5  4.0E-02  OK|
 | E-Diss.K             | 0.93 | 9.4E-04 | 1.9E-02 |  7.7  9.6E-03  OK|
 +----------------------+------+---------+---------+------------------+

 ======================================================================
 OUTER LOOP ITERATION =  172 (   25) CPU SECONDS = 6.651E+01 (1.681E+01)
 ----------------------------------------------------------------------
 |       Equation       | Rate | RMS Res | Max Res |  Linear Solution |
 +----------------------+------+---------+---------+------------------+
 | U-Mom                | 0.98 | 2.3E-04 | 4.4E-03 |       2.4E-02  OK|
 | V-Mom                | 0.96 | 2.2E-04 | 4.4E-03 |       2.5E-02  OK|
 | W-Mom                | 0.97 | 1.1E-04 | 4.0E-03 |       9.2E-02  OK|
 | P-Mass               | 0.94 | 4.4E-05 | 3.3E-04 | 13.8  3.6E-02  OK|
 +----------------------+------+---------+---------+------------------+
 | H-Energy             | 0.99 | 4.2E-04 | 1.1E-02 |  5.5  3.0E-02  OK|
 +----------------------+------+---------+---------+------------------+
 | K-TurbKE             | 0.96 | 6.1E-04 | 2.8E-03 |  5.5  4.1E-02  OK|
 | E-Diss.K             | 0.95 | 8.9E-04 | 1.8E-02 |  7.7  9.7E-03  OK|
 +----------------------+------+---------+---------+------------------+

 ======================================================================
 OUTER LOOP ITERATION =  173 (   26) CPU SECONDS = 6.709E+01 (1.739E+01)
 ----------------------------------------------------------------------
 |       Equation       | Rate | RMS Res | Max Res |  Linear Solution |
 +----------------------+------+---------+---------+------------------+
 | U-Mom                | 0.98 | 2.2E-04 | 4.5E-03 |       2.4E-02  OK|
 | V-Mom                | 0.97 | 2.1E-04 | 4.0E-03 |       2.5E-02  OK|
 | W-Mom                | 0.98 | 1.1E-04 | 3.8E-03 |       9.3E-02  OK|
 | P-Mass               | 0.95 | 4.2E-05 | 3.0E-04 | 13.8  3.7E-02  OK|
 +----------------------+------+---------+---------+------------------+
 | H-Energy             | 0.99 | 4.2E-04 | 1.1E-02 |  5.5  3.0E-02  OK|
 +----------------------+------+---------+---------+------------------+
 | K-TurbKE             | 0.96 | 5.8E-04 | 2.7E-03 |  5.5  4.1E-02  OK|
 | E-Diss.K             | 0.95 | 8.4E-04 | 1.8E-02 |  7.6  1.0E-02  OK|
 +----------------------+------+---------+---------+------------------+

 ======================================================================
 OUTER LOOP ITERATION =  174 (   27) CPU SECONDS = 6.770E+01 (1.800E+01)
 ----------------------------------------------------------------------
 |       Equation       | Rate | RMS Res | Max Res |  Linear Solution |
 +----------------------+------+---------+---------+------------------+
 | U-Mom                | 0.98 | 2.2E-04 | 4.6E-03 |       2.4E-02  OK|
 | V-Mom                | 0.97 | 2.0E-04 | 3.6E-03 |       2.5E-02  OK|
 | W-Mom                | 0.99 | 1.0E-04 | 3.5E-03 |       9.4E-02  OK|
 | P-Mass               | 0.96 | 4.0E-05 | 3.1E-04 | 13.8  3.8E-02  OK|
 +----------------------+------+---------+---------+------------------+
 | H-Energy             | 1.00 | 4.2E-04 | 1.2E-02 |  5.5  2.9E-02  OK|
 +----------------------+------+---------+---------+------------------+
 | K-TurbKE             | 0.96 | 5.6E-04 | 2.8E-03 |  5.5  4.1E-02  OK|
 | E-Diss.K             | 0.95 | 8.0E-04 | 1.7E-02 |  7.6  1.0E-02  OK|
 +----------------------+------+---------+---------+------------------+

 ======================================================================
 OUTER LOOP ITERATION =  175 (   28) CPU SECONDS = 6.828E+01 (1.858E+01)
 ----------------------------------------------------------------------
 |       Equation       | Rate | RMS Res | Max Res |  Linear Solution |
 +----------------------+------+---------+---------+------------------+
 | U-Mom                | 0.98 | 2.1E-04 | 4.6E-03 |       2.4E-02  OK|
 | V-Mom                | 0.98 | 2.0E-04 | 3.0E-03 |       2.5E-02  OK|
 | W-Mom                | 0.99 | 1.0E-04 | 3.2E-03 |       9.5E-02  OK|
 | P-Mass               | 0.97 | 3.9E-05 | 3.1E-04 | 13.8  3.9E-02  OK|
 +----------------------+------+---------+---------+------------------+
 | H-Energy             | 1.00 | 4.2E-04 | 1.2E-02 |  5.5  2.9E-02  OK|
 +----------------------+------+---------+---------+------------------+
 | K-TurbKE             | 0.96 | 5.4E-04 | 2.8E-03 |  5.5  4.2E-02  OK|
 | E-Diss.K             | 0.95 | 7.5E-04 | 1.6E-02 |  7.6  1.0E-02  OK|
 +----------------------+------+---------+---------+------------------+

 ======================================================================
 |                        Timescale Information                       |
 ----------------------------------------------------------------------
 |       Equation       |         Type          |      Timescale      |
 +----------------------+-----------------------+---------------------+
 | U-Mom                | Auto Timescale        |     2.86956E-01     |
 | V-Mom                | Auto Timescale        |     2.86956E-01     |
 | W-Mom                | Auto Timescale        |     2.86956E-01     |
 +----------------------+-----------------------+---------------------+
 | H-Energy             | Auto Timescale        |     2.86956E-01     |
 +----------------------+-----------------------+---------------------+
 | K-TurbKE             | Auto Timescale        |     2.86956E-01     |
 | E-Diss.K             | Auto Timescale        |     2.86956E-01     |
 +----------------------+-----------------------+---------------------+

 ======================================================================
 OUTER LOOP ITERATION =  176 (   29) CPU SECONDS = 6.885E+01 (1.915E+01)
 ----------------------------------------------------------------------
 |       Equation       | Rate | RMS Res | Max Res |  Linear Solution |
 +----------------------+------+---------+---------+------------------+
 | U-Mom                | 0.98 | 2.1E-04 | 4.6E-03 |       2.3E-02  OK|
 | V-Mom                | 0.98 | 2.0E-04 | 2.4E-03 |       2.3E-02  OK|
 | W-Mom                | 1.00 | 1.0E-04 | 2.9E-03 |       9.2E-02  OK|
 | P-Mass               | 0.97 | 3.8E-05 | 3.2E-04 | 13.8  3.8E-02  OK|
 +----------------------+------+---------+---------+------------------+
 | H-Energy             | 0.99 | 4.2E-04 | 1.2E-02 |  5.5  2.8E-02  OK|
 +----------------------+------+---------+---------+------------------+
 | K-TurbKE             | 0.96 | 5.2E-04 | 2.7E-03 |  5.5  4.0E-02  OK|
 | E-Diss.K             | 0.93 | 7.0E-04 | 1.4E-02 |  7.6  1.0E-02  OK|
 +----------------------+------+---------+---------+------------------+

 ======================================================================
 OUTER LOOP ITERATION =  177 (   30) CPU SECONDS = 6.941E+01 (1.971E+01)
 ----------------------------------------------------------------------
 |       Equation       | Rate | RMS Res | Max Res |  Linear Solution |
 +----------------------+------+---------+---------+------------------+
 | U-Mom                | 0.98 | 2.0E-04 | 4.5E-03 |       2.3E-02  OK|
 | V-Mom                | 0.98 | 1.9E-04 | 2.1E-03 |       2.3E-02  OK|
 | W-Mom                | 1.00 | 1.0E-04 | 2.6E-03 |       9.2E-02  OK|
 | P-Mass               | 0.97 | 3.7E-05 | 3.2E-04 | 13.8  3.8E-02  OK|
 +----------------------+------+---------+---------+------------------+
 | H-Energy             | 1.00 | 4.2E-04 | 1.2E-02 |  5.5  2.8E-02  OK|
 +----------------------+------+---------+---------+------------------+
 | K-TurbKE             | 0.96 | 5.0E-04 | 2.7E-03 |  5.5  4.0E-02  OK|
 | E-Diss.K             | 0.94 | 6.6E-04 | 1.3E-02 |  7.6  1.0E-02  OK|
 +----------------------+------+---------+---------+------------------+

 ======================================================================
 OUTER LOOP ITERATION =  178 (   31) CPU SECONDS = 6.997E+01 (2.027E+01)
 ----------------------------------------------------------------------
 |       Equation       | Rate | RMS Res | Max Res |  Linear Solution |
 +----------------------+------+---------+---------+------------------+
 | U-Mom                | 0.99 | 2.0E-04 | 4.4E-03 |       2.3E-02  OK|
 | V-Mom                | 0.99 | 1.9E-04 | 1.8E-03 |       2.3E-02  OK|
 | W-Mom                | 1.00 | 1.0E-04 | 2.3E-03 |       9.3E-02  OK|
 | P-Mass               | 0.97 | 3.6E-05 | 3.3E-04 | 13.8  3.9E-02  OK|
 +----------------------+------+---------+---------+------------------+
 | H-Energy             | 1.00 | 4.2E-04 | 1.2E-02 |  5.5  2.8E-02  OK|
 +----------------------+------+---------+---------+------------------+
 | K-TurbKE             | 0.96 | 4.8E-04 | 2.6E-03 |  5.5  4.0E-02  OK|
 | E-Diss.K             | 0.94 | 6.2E-04 | 1.3E-02 |  7.6  1.0E-02  OK|
 +----------------------+------+---------+---------+------------------+

 ======================================================================
 OUTER LOOP ITERATION =  179 (   32) CPU SECONDS = 7.054E+01 (2.083E+01)
 ----------------------------------------------------------------------
 |       Equation       | Rate | RMS Res | Max Res |  Linear Solution |
 +----------------------+------+---------+---------+------------------+
 | U-Mom                | 0.99 | 2.0E-04 | 4.2E-03 |       2.2E-02  OK|
 | V-Mom                | 0.99 | 1.9E-04 | 2.0E-03 |       2.3E-02  OK|
 | W-Mom                | 1.00 | 1.0E-04 | 2.2E-03 |       9.3E-02  OK|
 | P-Mass               | 0.98 | 3.5E-05 | 3.3E-04 | 13.8  4.0E-02  OK|
 +----------------------+------+---------+---------+------------------+
 | H-Energy             | 1.00 | 4.2E-04 | 1.1E-02 |  5.5  2.9E-02  OK|
 +----------------------+------+---------+---------+------------------+
 | K-TurbKE             | 0.96 | 4.6E-04 | 2.5E-03 |  5.5  4.1E-02  OK|
 | E-Diss.K             | 0.94 | 5.8E-04 | 1.2E-02 |  7.6  1.0E-02  OK|
 +----------------------+------+---------+---------+------------------+

 ======================================================================
 OUTER LOOP ITERATION =  180 (   33) CPU SECONDS = 7.110E+01 (2.140E+01)
 ----------------------------------------------------------------------
 |       Equation       | Rate | RMS Res | Max Res |  Linear Solution |
 +----------------------+------+---------+---------+------------------+
 | U-Mom                | 0.99 | 1.9E-04 | 4.1E-03 |       2.2E-02  OK|
 | V-Mom                | 0.99 | 1.9E-04 | 2.2E-03 |       2.3E-02  OK|
 | W-Mom                | 1.00 | 1.0E-04 | 2.0E-03 |       9.4E-02  OK|
 | P-Mass               | 0.99 | 3.5E-05 | 3.4E-04 | 13.8  4.0E-02  OK|
 +----------------------+------+---------+---------+------------------+
 | H-Energy             | 1.00 | 4.2E-04 | 1.1E-02 |  5.5  2.9E-02  OK|
 +----------------------+------+---------+---------+------------------+
 | K-TurbKE             | 0.96 | 4.4E-04 | 2.4E-03 |  5.5  4.1E-02  OK|
 | E-Diss.K             | 0.94 | 5.5E-04 | 1.1E-02 |  7.6  1.0E-02  OK|
 +----------------------+------+---------+---------+------------------+

 ======================================================================
 |                        Timescale Information                       |
 ----------------------------------------------------------------------
 |       Equation       |         Type          |      Timescale      |
 +----------------------+-----------------------+---------------------+
 | U-Mom                | Auto Timescale        |     2.77912E-01     |
 | V-Mom                | Auto Timescale        |     2.77912E-01     |
 | W-Mom                | Auto Timescale        |     2.77912E-01     |
 +----------------------+-----------------------+---------------------+
 | H-Energy             | Auto Timescale        |     2.77912E-01     |
 +----------------------+-----------------------+---------------------+
 | K-TurbKE             | Auto Timescale        |     2.77912E-01     |
 | E-Diss.K             | Auto Timescale        |     2.77912E-01     |
 +----------------------+-----------------------+---------------------+

 ======================================================================
 OUTER LOOP ITERATION =  181 (   34) CPU SECONDS = 7.166E+01 (2.196E+01)
 ----------------------------------------------------------------------
 |       Equation       | Rate | RMS Res | Max Res |  Linear Solution |
 +----------------------+------+---------+---------+------------------+
 | U-Mom                | 0.99 | 1.9E-04 | 4.1E-03 |       2.1E-02  OK|
 | V-Mom                | 0.99 | 1.9E-04 | 2.2E-03 |       2.2E-02  OK|
 | W-Mom                | 0.99 | 1.0E-04 | 1.8E-03 |       9.0E-02  OK|
 | P-Mass               | 0.99 | 3.4E-05 | 3.4E-04 | 13.8  3.9E-02  OK|
 +----------------------+------+---------+---------+------------------+
 | H-Energy             | 1.00 | 4.2E-04 | 1.0E-02 |  5.5  2.8E-02  OK|
 +----------------------+------+---------+---------+------------------+
 | K-TurbKE             | 0.96 | 4.3E-04 | 2.3E-03 |  5.5  4.0E-02  OK|
 | E-Diss.K             | 0.93 | 5.1E-04 | 1.1E-02 |  7.6  1.0E-02  OK|
 +----------------------+------+---------+---------+------------------+

 ======================================================================
 OUTER LOOP ITERATION =  182 (   35) CPU SECONDS = 7.222E+01 (2.252E+01)
 ----------------------------------------------------------------------
 |       Equation       | Rate | RMS Res | Max Res |  Linear Solution |
 +----------------------+------+---------+---------+------------------+
 | U-Mom                | 0.99 | 1.9E-04 | 4.0E-03 |       2.1E-02  OK|
 | V-Mom                | 0.99 | 1.8E-04 | 2.0E-03 |       2.2E-02  OK|
 | W-Mom                | 0.99 | 9.9E-05 | 1.6E-03 |       9.0E-02  OK|
 | P-Mass               | 0.99 | 3.4E-05 | 3.5E-04 | 13.8  3.9E-02  OK|
 +----------------------+------+---------+---------+------------------+
 | H-Energy             | 1.00 | 4.2E-04 | 9.4E-03 |  5.5  2.7E-02  OK|
 +----------------------+------+---------+---------+------------------+
 | K-TurbKE             | 0.96 | 4.1E-04 | 2.3E-03 |  5.5  3.9E-02  OK|
 | E-Diss.K             | 0.94 | 4.8E-04 | 1.0E-02 |  7.6  1.0E-02  OK|
 +----------------------+------+---------+---------+------------------+

 ======================================================================
 OUTER LOOP ITERATION =  183 (   36) CPU SECONDS = 7.281E+01 (2.311E+01)
 ----------------------------------------------------------------------
 |       Equation       | Rate | RMS Res | Max Res |  Linear Solution |
 +----------------------+------+---------+---------+------------------+
 | U-Mom                | 0.99 | 1.9E-04 | 3.8E-03 |       2.1E-02  OK|
 | V-Mom                | 0.99 | 1.8E-04 | 1.7E-03 |       2.2E-02  OK|
 | W-Mom                | 0.99 | 9.9E-05 | 1.5E-03 |       9.0E-02  OK|
 | P-Mass               | 0.99 | 3.3E-05 | 3.5E-04 | 13.8  3.9E-02  OK|
 +----------------------+------+---------+---------+------------------+
 | H-Energy             | 1.01 | 4.3E-04 | 9.0E-03 |  5.5  2.8E-02  OK|
 +----------------------+------+---------+---------+------------------+
 | K-TurbKE             | 0.97 | 4.0E-04 | 2.3E-03 |  5.5  3.9E-02  OK|
 | E-Diss.K             | 0.95 | 4.5E-04 | 9.3E-03 |  7.6  1.0E-02  OK|
 +----------------------+------+---------+---------+------------------+

 ======================================================================
 OUTER LOOP ITERATION =  184 (   37) CPU SECONDS = 7.338E+01 (2.368E+01)
 ----------------------------------------------------------------------
 |       Equation       | Rate | RMS Res | Max Res |  Linear Solution |
 +----------------------+------+---------+---------+------------------+
 | U-Mom                | 0.99 | 1.9E-04 | 3.8E-03 |       2.1E-02  OK|
 | V-Mom                | 0.99 | 1.8E-04 | 1.3E-03 |       2.2E-02  OK|
 | W-Mom                | 1.00 | 9.8E-05 | 1.5E-03 |       9.0E-02  OK|
 | P-Mass               | 0.99 | 3.3E-05 | 3.5E-04 | 13.8  3.9E-02  OK|
 +----------------------+------+---------+---------+------------------+
 | H-Energy             | 1.00 | 4.3E-04 | 9.5E-03 |  5.5  2.8E-02  OK|
 +----------------------+------+---------+---------+------------------+
 | K-TurbKE             | 0.97 | 3.8E-04 | 2.3E-03 |  5.5  3.9E-02  OK|
 | E-Diss.K             | 0.95 | 4.3E-04 | 8.7E-03 |  7.6  1.0E-02  OK|
 +----------------------+------+---------+---------+------------------+

 ======================================================================
 OUTER LOOP ITERATION =  185 (   38) CPU SECONDS = 7.395E+01 (2.425E+01)
 ----------------------------------------------------------------------
 |       Equation       | Rate | RMS Res | Max Res |  Linear Solution |
 +----------------------+------+---------+---------+------------------+
 | U-Mom                | 0.99 | 1.9E-04 | 3.9E-03 |       2.1E-02  OK|
 | V-Mom                | 0.99 | 1.8E-04 | 1.3E-03 |       2.2E-02  OK|
 | W-Mom                | 1.00 | 9.8E-05 | 1.4E-03 |       9.1E-02  OK|
 | P-Mass               | 1.00 | 3.3E-05 | 3.5E-04 | 13.8  3.9E-02  OK|
 +----------------------+------+---------+---------+------------------+
 | H-Energy             | 1.00 | 4.3E-04 | 9.5E-03 |  5.5  2.8E-02  OK|
 +----------------------+------+---------+---------+------------------+
 | K-TurbKE             | 0.97 | 3.7E-04 | 2.3E-03 |  5.5  3.9E-02  OK|
 | E-Diss.K             | 0.95 | 4.1E-04 | 8.1E-03 |  7.6  1.0E-02  OK|
 +----------------------+------+---------+---------+------------------+

 ======================================================================
 |                        Timescale Information                       |
 ----------------------------------------------------------------------
 |       Equation       |         Type          |      Timescale      |
 +----------------------+-----------------------+---------------------+
 | U-Mom                | Auto Timescale        |     2.69600E-01     |
 | V-Mom                | Auto Timescale        |     2.69600E-01     |
 | W-Mom                | Auto Timescale        |     2.69600E-01     |
 +----------------------+-----------------------+---------------------+
 | H-Energy             | Auto Timescale        |     2.69600E-01     |
 +----------------------+-----------------------+---------------------+
 | K-TurbKE             | Auto Timescale        |     2.69600E-01     |
 | E-Diss.K             | Auto Timescale        |     2.69600E-01     |
 +----------------------+-----------------------+---------------------+

 ======================================================================
 OUTER LOOP ITERATION =  186 (   39) CPU SECONDS = 7.453E+01 (2.483E+01)
 ----------------------------------------------------------------------
 |       Equation       | Rate | RMS Res | Max Res |  Linear Solution |
 +----------------------+------+---------+---------+------------------+
 | U-Mom                | 0.99 | 1.8E-04 | 3.9E-03 |       2.1E-02  OK|
 | V-Mom                | 0.99 | 1.8E-04 | 1.3E-03 |       2.2E-02  OK|
 | W-Mom                | 1.00 | 9.8E-05 | 1.3E-03 |       8.8E-02  OK|
 | P-Mass               | 1.00 | 3.3E-05 | 3.5E-04 | 13.8  3.8E-02  OK|
 +----------------------+------+---------+---------+------------------+
 | H-Energy             | 0.99 | 4.2E-04 | 9.2E-03 |  5.5  2.7E-02  OK|
 +----------------------+------+---------+---------+------------------+
 | K-TurbKE             | 0.97 | 3.6E-04 | 2.2E-03 |  5.5  3.8E-02  OK|
 | E-Diss.K             | 0.93 | 3.8E-04 | 7.4E-03 |  7.6  1.0E-02  OK|
 +----------------------+------+---------+---------+------------------+

 ======================================================================
 OUTER LOOP ITERATION =  187 (   40) CPU SECONDS = 7.511E+01 (2.541E+01)
 ----------------------------------------------------------------------
 |       Equation       | Rate | RMS Res | Max Res |  Linear Solution |
 +----------------------+------+---------+---------+------------------+
 | U-Mom                | 0.99 | 1.8E-04 | 3.9E-03 |       2.1E-02  OK|
 | V-Mom                | 0.99 | 1.8E-04 | 1.3E-03 |       2.2E-02  OK|
 | W-Mom                | 1.00 | 9.8E-05 | 1.5E-03 |       8.8E-02  OK|
 | P-Mass               | 0.99 | 3.3E-05 | 3.5E-04 | 13.8  3.8E-02  OK|
 +----------------------+------+---------+---------+------------------+
 | H-Energy             | 1.00 | 4.2E-04 | 9.0E-03 |  5.5  2.7E-02  OK|
 +----------------------+------+---------+---------+------------------+
 | K-TurbKE             | 0.97 | 3.5E-04 | 2.2E-03 |  5.5  3.7E-02  OK|
 | E-Diss.K             | 0.95 | 3.6E-04 | 7.0E-03 |  7.6  1.0E-02  OK|
 +----------------------+------+---------+---------+------------------+

 ======================================================================
 OUTER LOOP ITERATION =  188 (   41) CPU SECONDS = 7.570E+01 (2.600E+01)
 ----------------------------------------------------------------------
 |       Equation       | Rate | RMS Res | Max Res |  Linear Solution |
 +----------------------+------+---------+---------+------------------+
 | U-Mom                | 0.99 | 1.8E-04 | 3.8E-03 |       2.1E-02  OK|
 | V-Mom                | 0.99 | 1.8E-04 | 1.2E-03 |       2.2E-02  OK|
 | W-Mom                | 1.00 | 9.9E-05 | 1.6E-03 |       8.9E-02  OK|
 | P-Mass               | 0.99 | 3.3E-05 | 3.5E-04 | 13.8  3.9E-02  OK|
 +----------------------+------+---------+---------+------------------+
 | H-Energy             | 0.99 | 4.2E-04 | 8.7E-03 |  5.5  2.6E-02  OK|
 +----------------------+------+---------+---------+------------------+
 | K-TurbKE             | 0.97 | 3.3E-04 | 2.2E-03 |  5.5  3.7E-02  OK|
 | E-Diss.K             | 0.96 | 3.5E-04 | 6.6E-03 |  7.6  1.0E-02  OK|
 +----------------------+------+---------+---------+------------------+

 ======================================================================
 OUTER LOOP ITERATION =  189 (   42) CPU SECONDS = 7.629E+01 (2.659E+01)
 ----------------------------------------------------------------------
 |       Equation       | Rate | RMS Res | Max Res |  Linear Solution |
 +----------------------+------+---------+---------+------------------+
 | U-Mom                | 0.99 | 1.8E-04 | 3.7E-03 |       2.1E-02  OK|
 | V-Mom                | 0.99 | 1.8E-04 | 1.1E-03 |       2.2E-02  OK|
 | W-Mom                | 1.00 | 9.9E-05 | 1.6E-03 |       9.0E-02  OK|
 | P-Mass               | 1.00 | 3.3E-05 | 3.5E-04 | 13.8  3.9E-02  OK|
 +----------------------+------+---------+---------+------------------+
 | H-Energy             | 0.99 | 4.2E-04 | 8.6E-03 |  5.5  2.6E-02  OK|
 +----------------------+------+---------+---------+------------------+
 | K-TurbKE             | 0.97 | 3.2E-04 | 2.1E-03 |  5.5  3.7E-02  OK|
 | E-Diss.K             | 0.96 | 3.3E-04 | 6.2E-03 |  7.6  1.0E-02  OK|
 +----------------------+------+---------+---------+------------------+

 ======================================================================
 OUTER LOOP ITERATION =  190 (   43) CPU SECONDS = 7.687E+01 (2.717E+01)
 ----------------------------------------------------------------------
 |       Equation       | Rate | RMS Res | Max Res |  Linear Solution |
 +----------------------+------+---------+---------+------------------+
 | U-Mom                | 0.99 | 1.8E-04 | 3.7E-03 |       2.1E-02  OK|
 | V-Mom                | 0.99 | 1.7E-04 | 1.1E-03 |       2.2E-02  OK|
 | W-Mom                | 1.01 | 1.0E-04 | 1.7E-03 |       9.1E-02  OK|
 | P-Mass               | 1.00 | 3.2E-05 | 3.5E-04 | 13.8  3.9E-02  OK|
 +----------------------+------+---------+---------+------------------+
[...]
 +----------------------+------+---------+---------+------------------+
 | H-Energy             | 0.98 | 9.9E-05 | 1.7E-03 |  5.5  3.7E-02  OK|
 +----------------------+------+---------+---------+------------------+
 | K-TurbKE             | 1.00 | 1.6E-04 | 9.5E-04 |  5.5  3.6E-02  OK|
 | E-Diss.K             | 1.00 | 2.3E-04 | 3.6E-03 |  7.6  1.2E-02  OK|
 +----------------------+------+---------+---------+------------------+

 ======================================================================
 OUTER LOOP ITERATION =  244 (   97) CPU SECONDS = 1.080E+02 (5.827E+01)
 ----------------------------------------------------------------------
 |       Equation       | Rate | RMS Res | Max Res |  Linear Solution |
 +----------------------+------+---------+---------+------------------+
 | U-Mom                | 0.99 | 1.1E-04 | 3.9E-03 |       2.3E-02  OK|
 | V-Mom                | 0.99 | 1.2E-04 | 4.4E-03 |       2.4E-02  OK|
 | W-Mom                | 0.98 | 4.0E-05 | 1.6E-03 |       2.0E-01  ok|
 | P-Mass               | 0.99 | 2.6E-05 | 2.3E-04 | 13.8  4.0E-02  OK|
 +----------------------+------+---------+---------+------------------+
 | H-Energy             | 0.99 | 9.7E-05 | 1.9E-03 |  5.5  3.8E-02  OK|
 +----------------------+------+---------+---------+------------------+
 | K-TurbKE             | 1.00 | 1.6E-04 | 9.4E-04 |  5.5  3.6E-02  OK|
 | E-Diss.K             | 1.00 | 2.3E-04 | 3.6E-03 |  7.6  1.2E-02  OK|
 +----------------------+------+---------+---------+------------------+

 ======================================================================
 OUTER LOOP ITERATION =  245 (   98) CPU SECONDS = 1.085E+02 (5.885E+01)
 ----------------------------------------------------------------------
 |       Equation       | Rate | RMS Res | Max Res |  Linear Solution |
 +----------------------+------+---------+---------+------------------+
 | U-Mom                | 0.99 | 1.1E-04 | 3.9E-03 |       2.3E-02  OK|
 | V-Mom                | 0.99 | 1.2E-04 | 4.5E-03 |       2.4E-02  OK|
 | W-Mom                | 0.98 | 3.9E-05 | 1.4E-03 |       2.1E-01  ok|
 | P-Mass               | 0.99 | 2.5E-05 | 2.3E-04 | 13.8  4.0E-02  OK|
 +----------------------+------+---------+---------+------------------+
 | H-Energy             | 0.99 | 9.6E-05 | 1.9E-03 |  5.5  3.8E-02  OK|
 +----------------------+------+---------+---------+------------------+
 | K-TurbKE             | 1.00 | 1.6E-04 | 9.4E-04 |  5.5  3.6E-02  OK|
 | E-Diss.K             | 1.00 | 2.3E-04 | 3.6E-03 |  7.6  1.2E-02  OK|
 +----------------------+------+---------+---------+------------------+

 ======================================================================
 |                        Timescale Information                       |
 ----------------------------------------------------------------------
 |       Equation       |         Type          |      Timescale      |
 +----------------------+-----------------------+---------------------+
 | U-Mom                | Auto Timescale        |     2.04412E-01     |
 | V-Mom                | Auto Timescale        |     2.04412E-01     |
 | W-Mom                | Auto Timescale        |     2.04412E-01     |
 +----------------------+-----------------------+---------------------+
 | H-Energy             | Auto Timescale        |     2.04412E-01     |
 +----------------------+-----------------------+---------------------+
 | K-TurbKE             | Auto Timescale        |     2.04412E-01     |
 | E-Diss.K             | Auto Timescale        |     2.04412E-01     |
 +----------------------+-----------------------+---------------------+

 ======================================================================
 OUTER LOOP ITERATION =  246 (   99) CPU SECONDS = 1.091E+02 (5.941E+01)
 ----------------------------------------------------------------------
 |       Equation       | Rate | RMS Res | Max Res |  Linear Solution |
 +----------------------+------+---------+---------+------------------+
 | U-Mom                | 0.99 | 1.1E-04 | 3.9E-03 |       2.2E-02  OK|
 | V-Mom                | 0.99 | 1.2E-04 | 4.5E-03 |       2.3E-02  OK|
 | W-Mom                | 0.98 | 3.8E-05 | 1.4E-03 |       2.0E-01  ok|
 | P-Mass               | 0.99 | 2.5E-05 | 2.3E-04 | 13.8  3.9E-02  OK|
 +----------------------+------+---------+---------+------------------+
 | H-Energy             | 0.98 | 9.4E-05 | 1.8E-03 |  5.5  3.7E-02  OK|
 +----------------------+------+---------+---------+------------------+
 | K-TurbKE             | 0.99 | 1.5E-04 | 9.4E-04 |  5.5  3.5E-02  OK|
 | E-Diss.K             | 0.98 | 2.2E-04 | 3.5E-03 |  7.6  1.2E-02  OK|
 +----------------------+------+---------+---------+------------------+

 ======================================================================
 OUTER LOOP ITERATION =  247 (  100) CPU SECONDS = 1.097E+02 (5.999E+01)
 ----------------------------------------------------------------------
 |       Equation       | Rate | RMS Res | Max Res |  Linear Solution |
 +----------------------+------+---------+---------+------------------+
 | U-Mom                | 0.99 | 1.1E-04 | 3.9E-03 |       2.3E-02  OK|
 | V-Mom                | 0.99 | 1.1E-04 | 4.5E-03 |       2.3E-02  OK|
 | W-Mom                | 0.98 | 3.7E-05 | 1.5E-03 |       2.0E-01  ok|
 | P-Mass               | 0.99 | 2.5E-05 | 2.3E-04 | 13.8  3.9E-02  OK|
 +----------------------+------+---------+---------+------------------+
 | H-Energy             | 0.99 | 9.3E-05 | 1.8E-03 |  5.5  3.8E-02  OK|
 +----------------------+------+---------+---------+------------------+
 | K-TurbKE             | 0.99 | 1.5E-04 | 9.3E-04 |  5.5  3.5E-02  OK|
 | E-Diss.K             | 1.00 | 2.2E-04 | 3.5E-03 |  7.6  1.2E-02  OK|
 +----------------------+------+---------+---------+------------------+
                   
 CFD Solver finished: Wed Dec  5 10:58:34 2018
 CFD Solver wall clock seconds: 5.7172E+01

 ======================================================================
              Termination and Interrupt Condition Summary
 ======================================================================
    
 CFD Solver: Run duration reached
   (Maximum number of outer iterations)

 ======================================================================
              Boundary Flow and Total Source Term Summary
 ======================================================================

 +--------------------------------------------------------------------+
 |                               U-Mom                                |
 +--------------------------------------------------------------------+
 Boundary         : Default Domain Default                  2.5384E+01
 Boundary         : in1                                     6.0156E-05
 Boundary         : in2                                    -6.0063E-05
 Boundary         : out                                    -2.4796E+01
                                                           -----------
 Domain Imbalance :                                         5.8877E-01

 +--------------------------------------------------------------------+
 |                               V-Mom                                |
 +--------------------------------------------------------------------+
 Boundary         : Default Domain Default                 -3.3297E+01
 Boundary         : in1                                     5.2064E+04
 Boundary         : in2                                    -5.2033E+04
 Boundary         : out                                     1.0884E+00
                                                           -----------
 Domain Imbalance :                                        -8.6468E-01

 +--------------------------------------------------------------------+
 |                               W-Mom                                |
 +--------------------------------------------------------------------+
 Boundary         : Default Domain Default                 -1.2002E+04
 Boundary         : in1                                    -1.8849E-05
 Boundary         : in2                                    -9.1926E-06
 Boundary         : out                                     1.2038E+04
                                                           -----------
 Domain Imbalance :                                         3.6008E+01

 +--------------------------------------------------------------------+
 |                               P-Mass                               |
 +--------------------------------------------------------------------+
 Boundary         : in1                                     1.5000E+03
 Boundary         : in2                                     1.5000E+03
 Boundary         : out                                    -2.9998E+03
                                                           -----------
 Domain Imbalance :                                         1.6772E-01

 +--------------------------------------------------------------------+
 |                              H-Energy                              |
 +--------------------------------------------------------------------+
 Boundary         : in1                                     1.0569E+08
 Boundary         : in2                                    -8.2484E+07
 Boundary         : out                                    -2.3203E+07
                                                           -----------
 Domain Imbalance :                                         5.8320E+03


 +--------------------------------------------------------------------+
 |                     Normalised Imbalance Summary                   |
 +--------------------------------------------------------------------+
 |       Equation       |      Maximum Flow     |     Imbalance (%)   |
 +--------------------------------------------------------------------+
 | U-Mom                |       5.2064E+04      |        0.0011       |
 | V-Mom                |       5.2064E+04      |       -0.0017       |
 | W-Mom                |       5.2064E+04      |        0.0692       |
 | P-Mass               |       2.9998E+03      |        0.0056       |
 +----------------------+-----------------------+---------------------+
 | H-Energy             |       1.0569E+08      |        0.0055       |
 +----------------------+-----------------------+---------------------+

 ======================================================================
                     Wall Force and Moment Summary
 ======================================================================
                                                                          
 Notes:
 1. Pressure integrals exclude the reference pressure.  To include
    it, set the expert parameter 'include pref in forces = t'.


 +--------------------------------------------------------------------+
 |                      Pressure Force On Walls                       |
 +--------------------------------------------------------------------+
                                    X-Comp.      Y-Comp.      Z-Comp.

 Domain Group: Default Domain

 Default Domain Default          -2.3888E+01   3.2146E+01   1.2091E+04
                                  -----------  -----------  -----------
 Domain Group Totals :           -2.3888E+01   3.2146E+01   1.2091E+04


 +--------------------------------------------------------------------+
 |                       Viscous Force On Walls                       |
 +--------------------------------------------------------------------+
                                    X-Comp.      Y-Comp.      Z-Comp.

 Domain Group: Default Domain

 Default Domain Default          -1.5278E+00   1.1515E+00  -8.8069E+01
                                  -----------  -----------  -----------
 Domain Group Totals :           -1.5278E+00   1.1515E+00  -8.8069E+01


 +--------------------------------------------------------------------+
 |                      Pressure Moment On Walls                      |
 +--------------------------------------------------------------------+
                                    X-Comp.      Y-Comp.      Z-Comp.

 Domain Group: Default Domain

 Default Domain Default          -2.1099E+01   4.1758E+01  -8.7273E+04
                                  -----------  -----------  -----------
 Domain Group Totals :           -2.1099E+01   4.1758E+01  -8.7273E+04


 +--------------------------------------------------------------------+
 |                       Viscous Moment On Walls                      |
 +--------------------------------------------------------------------+
                                    X-Comp.      Y-Comp.      Z-Comp.

 Domain Group: Default Domain

 Default Domain Default          -6.5450E-01  -2.5255E+00  -4.6634E+03
                                  -----------  -----------  -----------
 Domain Group Totals :           -6.5450E-01  -2.5255E+00  -4.6634E+03


 +--------------------------------------------------------------------+
 |                   Locations of Maximum Residuals                   |
 +--------------------------------------------------------------------+
 |       Equation       |      Domain Name      |     Node Number     |
 +--------------------------------------------------------------------+
 | U-Mom                | Default Domain        |          13904      |
 | V-Mom                | Default Domain        |          13904      |
 | W-Mom                | Default Domain        |          13933      |
 | P-Mass               | Default Domain        |          13893      |
 +----------------------+-----------------------+---------------------+
 | H-Energy             | Default Domain        |          14011      |
 +----------------------+-----------------------+---------------------+
 | K-TurbKE             | Default Domain        |           1610      |
 | E-Diss.K             | Default Domain        |          14687      |
 +----------------------+-----------------------+---------------------+

 ======================================================================
 |                     False Transient Information                    |
 +--------------------------------------------------------------------+
 |       Equation       |         Type          | Elapsed Pseudo-Time |
 +--------------------------------------------------------------------+
 | U-Mom                | Auto Timescale        |     2.63758E+01     |
 | V-Mom                | Auto Timescale        |     2.63758E+01     |
 | W-Mom                | Auto Timescale        |     2.63758E+01     |
 +----------------------+-----------------------+---------------------+
 | H-Energy             | Auto Timescale        |     2.63758E+01     |
 +----------------------+-----------------------+---------------------+
 | K-TurbKE             | Auto Timescale        |     2.63758E+01     |
 | E-Diss.K             | Auto Timescale        |     2.63758E+01     |
 +----------------------+-----------------------+---------------------+

 +--------------------------------------------------------------------+
 |                     Average Scale Information                      |
 +--------------------------------------------------------------------+

 Domain Name : Default Domain
     Global Length                                         = 3.2195E+00
     Minimum Extent                                        = 4.0000E+00
     Maximum Extent                                        = 6.0000E+00
     Density                                               = 9.9700E+02
     Dynamic Viscosity                                     = 8.8990E-04
     Velocity                                              = 4.9730E+00
     Advection Time                                        = 6.4739E-01
     Reynolds Number                                       = 1.7937E+07
     Thermal Conductivity                                  = 6.0690E-01
     Specific Heat Capacity at Constant Pressure           = 4.1817E+03
     Prandtl Number                                        = 6.1316E+00
     Temperature Range                                     = 3.0033E+01

 +--------------------------------------------------------------------+
 |                     Variable Range Information                     |
 +--------------------------------------------------------------------+

 Domain Name : Default Domain
 +--------------------------------------------------------------------+
 |      Variable Name                         |    min    |    max    |
 +--------------------------------------------------------------------+
 | Density                                    |  9.97E+02 |  9.97E+02 |
 | Specific Heat Capacity at Constant Pressure|  4.18E+03 |  4.18E+03 |
 | Dynamic Viscosity                          |  8.90E-04 |  8.90E-04 |
 | Thermal Conductivity                       |  6.07E-01 |  6.07E-01 |
 | Static Entropy                             | -1.89E+02 |  2.30E+02 |
 | Velocity u                                 | -6.15E+00 |  6.13E+00 |
 | Velocity v                                 | -6.23E+00 |  6.23E+00 |
 | Velocity w                                 | -5.15E+00 |  1.69E+00 |
 | Pressure                                   | -8.81E+03 |  6.53E+04 |
 | Turbulence Kinetic Energy                  |  1.12E-04 |  4.14E+00 |
 | Turbulence Eddy Dissipation                |  3.26E-04 |  1.99E+02 |
 | Eddy Viscosity                             |  1.18E-03 |  3.10E+02 |
 | Temperature                                |  2.85E+02 |  3.15E+02 |
 | Static Enthalpy                            | -5.51E+04 |  7.05E+04 |
 +--------------------------------------------------------------------+

 +--------------------------------------------------------------------+
 |               CPU Requirements of Numerical Solution               |
 +--------------------------------------------------------------------+

 Subsystem Name                  Discretization       Linear Solution
                                (secs.   %total)     (secs.   %total) 
 ----------------------------------------------------------------------
 Momentum and Mass              1.95E+01  30.9 %     6.82E+00  10.8 %
 Heat Transfer                  6.57E+00  10.4 %     2.19E+00   3.5 %
 TurbKE and Diss.K              9.90E+00  15.6 %     4.90E+00   7.7 %
                                -------- -------     --------  ------
 Subsystem Summary              3.60E+01  56.9 %     1.39E+01  22.0 %

 File Reading                   2.30E-02    0.0 %
 Search Calculations            9.99E-04    0.0 %
 Variable Updates               6.79E+00   10.7 %
 File Writing                   2.09E-01    0.3 %
 Miscellaneous                  6.33E+00   10.0 %
                                --------
 Total                          6.33E+01

 +--------------------------------------------------------------------+
 |                   Job Information at End of Run                    |
 +--------------------------------------------------------------------+

 Host computer:  ENPC-LAB124 (PID:1448)

 Job finished:   Wed Dec  5 10:58:36 2018

 Total wall clock time: 6.327E+01 seconds
             or: (          0:         0:         1:     3.267 )
                 (       Days:     Hours:   Minutes:   Seconds )

End of solution stage.

 +--------------------------------------------------------------------+
 | The results from this run of the ANSYS CFX Solver have been        |
 | written to                                                         |
 | H:/dos/CFD/CW/CFD-Static-Mixer/StaticMixerDX_pending/dp1_CFX_Solu- |
 | tion/Fluid Flow CFX_004.res                                        |
 +--------------------------------------------------------------------+


 +--------------------------------------------------------------------+
 | For CFX runs launched from Workbench, the final locations of       |
 | directories and files generated may differ from those shown.       |
 +--------------------------------------------------------------------+


This run of the ANSYS CFX Solver has finished.
