 This run of the CFX Release 19.1 Solver started at 13:40:01 on 05 Dec
 2018 by user jc2182 on ENPC-LAB137 (intel_xeon64.sse2_winnt) using the
 command:
 
  "C:\Program Files\ANSYS Inc\v191\CFX\bin\perllib\cfx5solve.pl" -batch
    -ccl runInput.ccl -fullname "Fluid Flow CFX_002"
 
 Release 19.1
 
  Point Releases and Patches installed:
  ANSYS, Inc. Products Release 19.1
  SpaceClaim Release 19.1
  Autodyn Release 19.1
  LS-DYNA Release 19.1
  CFD-Post only Release 19.1
  CFX (includes CFD-Post) Release 19.1
  Chemkin Release 19.1
  EnSight Release 19.1
  FENSAP-ICE Release 19.1
  Fluent (includes CFD-Post) Release 19.1
  Forte Release 19.1
  Polyflow (includes CFD-Post) Release 19.1
  TurboGrid Release 19.1
  ICEM CFD Release 19.1
  Customization Files for User Programmable Features Release 19.1
  Mechanical Products Release 19.1
  Icepak (includes CFD-Post) Release 19.1
  Remote Solve Manager Standalone Services Release 19.1
  ACIS Geometry Interface Release 19.1
  Catia, Version 5 Geometry Interface Release 19.1
  NX Geometry Interface Release 19.1
  Parasolid Geometry Interface  Release 19.1
  ANSYS, Inc. License Manager Release 19.1
 
 Setting up CFX Solver run ...
 
 
 +--------------------------------------------------------------------+
 |                                                                    |
 |                    CFX Command Language for Run                    |
 |                                                                    |
 +--------------------------------------------------------------------+
 
 LIBRARY:
   CEL:
     EXPRESSIONS:
       inMassFlow = 1500 [kg s^-1]
     END
   END
   MATERIAL: Water
     Material Description = Water (liquid)
     Material Group = Water Data, Constant Property Liquids
     Option = Pure Substance
     Thermodynamic State = Liquid
     PROPERTIES:
       Option = General Material
       EQUATION OF STATE:
         Density = 997.0 [kg m^-3]
         Molar Mass = 18.02 [kg kmol^-1]
         Option = Value
       END
       SPECIFIC HEAT CAPACITY:
         Option = Value
         Specific Heat Capacity = 4181.7 [J kg^-1 K^-1]
         Specific Heat Type = Constant Pressure
       END
       REFERENCE STATE:
         Option = Specified Point
         Reference Pressure = 1 [atm]
         Reference Specific Enthalpy = 0.0 [J/kg]
         Reference Specific Entropy = 0.0 [J/kg/K]
         Reference Temperature = 25 [C]
       END
       DYNAMIC VISCOSITY:
         Dynamic Viscosity = 8.899E-4 [kg m^-1 s^-1]
         Option = Value
       END
       THERMAL CONDUCTIVITY:
         Option = Value
         Thermal Conductivity = 0.6069 [W m^-1 K^-1]
       END
       ABSORPTION COEFFICIENT:
         Absorption Coefficient = 1.0 [m^-1]
         Option = Value
       END
       SCATTERING COEFFICIENT:
         Option = Value
         Scattering Coefficient = 0.0 [m^-1]
       END
       REFRACTIVE INDEX:
         Option = Value
         Refractive Index = 1.0 [m m^-1]
       END
       THERMAL EXPANSIVITY:
         Option = Value
         Thermal Expansivity = 2.57E-04 [K^-1]
       END
     END
   END
 END
 FLOW: Flow Analysis 1
   SOLUTION UNITS:
     Angle Units = [rad]
     Length Units = [m]
     Mass Units = [kg]
     Solid Angle Units = [sr]
     Temperature Units = [K]
     Time Units = [s]
   END
   ANALYSIS TYPE:
     Option = Steady State
     EXTERNAL SOLVER COUPLING:
       Option = None
     END
   END
   DOMAIN: Default Domain
     Coord Frame = Coord 0
     Domain Type = Fluid
     Location = B17
     BOUNDARY: Default Domain Default
       Boundary Type = WALL
       Location = F12.17,F14.17,F16.17,F19.17,F20.17,F21.17
       BOUNDARY CONDITIONS:
         HEAT TRANSFER:
           Option = Adiabatic
         END
         MASS AND MOMENTUM:
           Option = No Slip Wall
         END
         WALL ROUGHNESS:
           Option = Smooth Wall
         END
       END
     END
     BOUNDARY: in1
       Boundary Type = INLET
       Location = in1
       BOUNDARY CONDITIONS:
         FLOW DIRECTION:
           Option = Normal to Boundary Condition
         END
         FLOW REGIME:
           Option = Subsonic
         END
         HEAT TRANSFER:
           Option = Static Temperature
           Static Temperature = 315 [K]
         END
         MASS AND MOMENTUM:
           Mass Flow Rate = inMassFlow
           Mass Flow Rate Area = As Specified
           Option = Mass Flow Rate
         END
         TURBULENCE:
           Option = Medium Intensity and Eddy Viscosity Ratio
         END
       END
     END
     BOUNDARY: in2
       Boundary Type = INLET
       Location = in2
       BOUNDARY CONDITIONS:
         FLOW DIRECTION:
           Option = Normal to Boundary Condition
         END
         FLOW REGIME:
           Option = Subsonic
         END
         HEAT TRANSFER:
           Option = Static Temperature
           Static Temperature = 285 [K]
         END
         MASS AND MOMENTUM:
           Mass Flow Rate = inMassFlow
           Mass Flow Rate Area = As Specified
           Option = Mass Flow Rate
         END
         TURBULENCE:
           Option = Medium Intensity and Eddy Viscosity Ratio
         END
       END
     END
     BOUNDARY: out
       Boundary Type = OUTLET
       Location = out
       BOUNDARY CONDITIONS:
         FLOW REGIME:
           Option = Subsonic
         END
         MASS AND MOMENTUM:
           Option = Static Pressure
           Relative Pressure = 0 [Pa]
         END
       END
     END
     DOMAIN MODELS:
       BUOYANCY MODEL:
         Option = Non Buoyant
       END
       DOMAIN MOTION:
         Option = Stationary
       END
       MESH DEFORMATION:
         Option = None
       END
       REFERENCE PRESSURE:
         Reference Pressure = 1 [atm]
       END
     END
     FLUID DEFINITION: Fluid 1
       Material = Water
       Option = Material Library
       MORPHOLOGY:
         Option = Continuous Fluid
       END
     END
     FLUID MODELS:
       COMBUSTION MODEL:
         Option = None
       END
       HEAT TRANSFER MODEL:
         Option = Thermal Energy
       END
       THERMAL RADIATION MODEL:
         Option = None
       END
       TURBULENCE MODEL:
         Option = k epsilon
       END
       TURBULENT WALL FUNCTIONS:
         Option = Scalable
       END
     END
   END
   OUTPUT CONTROL:
     RESULTS:
       File Compression Level = Default
       Option = Standard
     END
   END
   SOLVER CONTROL:
     Turbulence Numerics = High Resolution
     ADVECTION SCHEME:
       Option = High Resolution
     END
     CONVERGENCE CONTROL:
       Length Scale Option = Conservative
       Maximum Number of Iterations = 100
       Minimum Number of Iterations = 5
       Timescale Control = Auto Timescale
       Timescale Factor = 1.0
     END
     CONVERGENCE CRITERIA:
       Residual Target = 1.E-4
       Residual Type = RMS
     END
     DYNAMIC MODEL CONTROL:
       Global Dynamic Model Control = On
     END
   END
 END
 COMMAND FILE:
   Version = 19.1
   Results Version = 19.1
 END
 PARAMETERIZATION:
   INPUT FIELD: inMassFlow
     Expression Name = inMassFlow
     Method = Expression
   END
 END
 SIMULATION CONTROL:
   EXECUTION CONTROL:
     EXECUTABLE SELECTION:
       Double Precision = No
       Large Problem = No
     END
     INTERPOLATOR STEP CONTROL:
       Runtime Priority = Standard
       MEMORY CONTROL:
         Memory Allocation Factor = 1.0
       END
     END
     PARALLEL HOST LIBRARY:
       HOST DEFINITION: enpclab137
         Remote Host Name = ENPC-LAB137
         Host Architecture String = winnt-amd64
         Installation Root = C:\Program Files\ANSYS Inc\v%v\CFX
       END
     END
     PARTITIONER STEP CONTROL:
       Multidomain Option = Automatic
       Runtime Priority = Standard
       MEMORY CONTROL:
         Memory Allocation Factor = 1.0
       END
       PARTITION SMOOTHING:
         Maximum Partition Smoothing Sweeps = 100
         Option = Smooth
       END
       PARTITIONING TYPE:
         MeTiS Type = k-way
         Option = MeTiS
         Partition Size Rule = Automatic
       END
     END
     RUN DEFINITION:
       Run Mode = Full
       Solver Input File = Fluid Flow CFX.def
       Solver Results File = \
         H:/dos/CFD/CW/CFD-Static-Mixer/StaticMixerDX_pending/dp1_CFX_Solution\
         /Fluid Flow CFX_002.res
       INITIAL VALUES SPECIFICATION:
         INITIAL VALUES CONTROL:
           Use Mesh From = Solver Input File
           Continue History From = Workbench Initial Values
         END
         INITIAL VALUES: Workbench Initial Values
           Option = Results File
           File Name = Fluid Flow CFX_001.res
         END
       END
     END
     SOLVER STEP CONTROL:
       Runtime Priority = Standard
       MEMORY CONTROL:
         Memory Allocation Factor = 1.0
       END
       PARALLEL ENVIRONMENT:
         Number of Processes = 1
         Start Method = Serial
       END
     END
   END
 END
 
 
 +--------------------------------------------------------------------+
 |                                                                    |
 |                  Interpolation of Initial Values                   |
 |                                                                    |
 +--------------------------------------------------------------------+
 
 


 +--------------------------------------------------------------------+
 |                                                                    |
 |                    ANSYS(R) CFX(R) Interpolator                    |
 |                                                                    |
 | Release 19.1                                                       |
 | Build 19.1 2018-04-17T13:27:50.069000                              |
 | Tue Apr 17 15:02:11 GMTDT 2018                                     |
 |                                                                    |
 |                        Executable Attributes                       |
 |                                                                    |
 |           single-64bit-int32-archfort-optimised-std-lcomp          |
 |                                                                    |
 | (C) 1996-2018 ANSYS, Inc.                                          |
 |                                                                    |
 | All rights reserved. Unauthorized use, distribution or duplication |
 | is prohibited. This product is subject to U.S. laws governing      |
 | export and re-export. For full Legal Notice, see documentation.    |
 +--------------------------------------------------------------------+




 +--------------------------------------------------------------------+
 |                  Job Information at Start of Run                   |
 +--------------------------------------------------------------------+

 Run mode:       serial run

 Host computer:  ENPC-LAB137 (PID:4148)

 Job started:    Wed Dec  5 13:40:02 2018


 +--------------------------------------------------------------------+
 |        Memory Allocated for Run  (Actual usage may be less)        |
 +--------------------------------------------------------------------+

           | Real       | Integer    | Character | Logical  | Double
 ----------+------------+------------+-----------+----------+----------
 Mwords    |       0.83 |       0.98 |      0.20 |     0.01 |     0.05
 Mbytes    |       3.18 |       3.74 |      0.19 |     0.04 |     0.36
 ----------+------------+------------+-----------+----------+----------


 +--------------------------------------------------------------------+
 |                  Host Memory Information (Mbytes)                  |
 +--------------------------------------------------------------------+
 |          Host           |     System     |   Allocated    |   %    |
 +-------------------------+----------------+----------------+--------+
 | ENPC-LAB137             |     16240.97   |         7.52   |   0.05 |
 +-------------------------+----------------+----------------+--------+

 ======================================================================
               Interpolating Onto Domain "Default Domain"
 ======================================================================

 Total Number of Nodes in the Target Domain              =        15627
 Bounding Box Volume of the Target Mesh                  =  9.60000E+01


 Checking all source domains from the source file:
   Target mesh is the same as domain "Default Domain".

 Start direct copying of variables from domain "Default Domain".

 +--------------------------------------------------------------------+
 |                     Variable Range Information                     |
 +--------------------------------------------------------------------+
 +--------------------------------------------------------------------+
 |      Variable Name                         |    min    |    max    |
 +--------------------------------------------------------------------+
 | Static Enthalpy.Beta                       |  1.17E-03 |  1.00E+00 |
 | Turbulence Eddy Dissipation.Beta           |  0.00E+00 |  1.00E+00 |
 | Turbulence Kinetic Energy.Beta             |  0.00E+00 |  1.00E+00 |
 | Velocity u.Beta                            |  3.84E-05 |  1.00E+00 |
 | Velocity v.Beta                            |  4.44E-05 |  1.00E+00 |
 | Velocity w.Beta                            |  6.68E-06 |  1.00E+00 |
 | Thermal Conductivity                       |  6.07E-01 |  6.07E-01 |
 | Courant Number                             |  9.79E-01 |  3.49E+01 |
 | Density                                    |  9.97E+02 |  9.97E+02 |
 | Static Enthalpy                            | -5.50E+04 |  7.05E+04 |
 | Static Entropy                             | -1.89E+02 |  2.30E+02 |
 | Volume Porosity                            |  1.00E+00 |  1.00E+00 |
 | Static Enthalpy.Gradient                   |  6.56E-03 |  6.15E+05 |
 | Pressure.Gradient                          |  5.16E+01 |  8.57E+04 |
 | Turbulence Eddy Dissipation.Gradient       |  9.41E-05 |  2.51E+03 |
 | Turbulence Kinetic Energy.Gradient         |  3.07E-05 |  4.26E+01 |
 | Velocity u.Gradient                        |  1.37E-02 |  2.28E+01 |
 | Velocity v.Gradient                        |  1.38E-02 |  4.38E+01 |
 | Velocity w.Gradient                        |  7.73E-03 |  2.95E+01 |
 | Absolute Pressure                          |  9.48E+04 |  1.40E+05 |
 | Pressure                                   | -6.49E+03 |  3.88E+04 |
 | Total Pressure                             |  3.28E+03 |  4.28E+04 |
 | Specific Heat Capacity at Constant Pressure|  4.18E+03 |  4.18E+03 |
 | Specific Heat Capacity at Constant Volume  |  4.18E+03 |  4.18E+03 |
 | Specific Volume                            |  1.00E-03 |  1.00E-03 |
 | Shear Strain Rate                          |  7.59E-02 |  5.12E+01 |
 | Turbulence Eddy Dissipation                |  2.37E-04 |  1.48E+02 |
 | Turbulence Eddy Frequency                  |  4.88E+00 |  2.10E+03 |
 | Temperature                                |  2.85E+02 |  3.15E+02 |
 | Turbulence Kinetic Energy                  |  9.13E-05 |  3.34E+00 |
 | Total Temperature                          |  2.85E+02 |  3.15E+02 |
 | Velocity                                   |  2.02E-01 |  6.40E+00 |
 | Dynamic Viscosity                          |  8.90E-04 |  8.90E-04 |
 | Eddy Viscosity                             |  1.05E-03 |  2.67E+02 |
 +--------------------------------------------------------------------+

 +--------------------------------------------------------------------+
 |                 CPU Requirements of Interpolation                  |
 +--------------------------------------------------------------------+

 Interpolation Step              Time    Percentage
                                (secs.   %total)
 ----------------------------------------------------------------------
 Tree Setup                     2.00E-01    5.1 %
 Interpolation                  1.64E+00   41.4 %
 Miscellaneous                  2.12E+00   53.5 %
                                --------
 Total                          3.96E+00

 +--------------------------------------------------------------------+
 |                   Job Information at End of Run                    |
 +--------------------------------------------------------------------+

 Host computer:  ENPC-LAB137 (PID:4148)

 Job finished:   Wed Dec  5 13:40:06 2018

 Total wall clock time: 3.959E+00 seconds
             or: (          0:         0:         0:     3.959 )
                 (       Days:     Hours:   Minutes:   Seconds )

 
 +--------------------------------------------------------------------+
 |                                                                    |
 |                               Solver                               |
 |                                                                    |
 +--------------------------------------------------------------------+
 



 +--------------------------------------------------------------------+
 |                                                                    |
 |                       ANSYS(R) CFX(R) Solver                       |
 |                                                                    |
 | Release 19.1                                                       |
 | Build 19.1 2018-04-17T13:27:50.069000                              |
 | Tue Apr 17 15:02:11 GMTDT 2018                                     |
 |                                                                    |
 |                        Executable Attributes                       |
 |                                                                    |
 |           single-64bit-int32-archfort-optimised-std-lcomp          |
 |                                                                    |
 | (C) 1996-2018 ANSYS, Inc.                                          |
 |                                                                    |
 | All rights reserved. Unauthorized use, distribution or duplication |
 | is prohibited. This product is subject to U.S. laws governing      |
 | export and re-export. For full Legal Notice, see documentation.    |
 +--------------------------------------------------------------------+




 +--------------------------------------------------------------------+
 |                  Job Information at Start of Run                   |
 +--------------------------------------------------------------------+

 Run mode:       serial run

 Host computer:  ENPC-LAB137 (PID:9540)

 Job started:    Wed Dec  5 13:40:09 2018

 +--------------------------------------------------------------------+
 |                        License Information                         |
 +--------------------------------------------------------------------+
 
 License Cap:    ANSYS CFX Solver (Max 128K Nodes)
 License ID:     VIGO_campus_bath_ac_uk-SYSTEM-1456-442737


 +--------------------------------------------------------------------+
 |        Memory Allocated for Run  (Actual usage may be less)        |
 +--------------------------------------------------------------------+

           | Real       | Integer    | Character | Logical  | Double
 ----------+------------+------------+-----------+----------+----------
 Mwords    |      15.06 |       3.35 |      7.26 |     0.12 |     0.45
 Mbytes    |      57.43 |      12.79 |      6.93 |     0.46 |     3.44
 ----------+------------+------------+-----------+----------+----------


 +--------------------------------------------------------------------+
 |                  Host Memory Information (Mbytes)                  |
 +--------------------------------------------------------------------+
 |          Host           |     System     |   Allocated    |   %    |
 +-------------------------+----------------+----------------+--------+
 | ENPC-LAB137             |     16240.97   |        81.04   |   0.50 |
 +-------------------------+----------------+----------------+--------+


 +--------------------------------------------------------------------+
 |                     ****** Notice ******                           |
 | The Wall Heat Transfer Coefficient written to the results file for |
 | any turbulent phase with heat transfer is based on the turbulent   |
 | wall function coefficient. It is consistent with the Wall Heat Flux|
 | the wall temperature, and the Wall Adjacent Temperature            |
 | (near-wall temperature).  If you would like it to be based on a    |
 | user-specified bulk temperature instead, please set the expert     |
 | parameter "tbulk for htc = <value>".                               |
 +--------------------------------------------------------------------+

 +--------------------------------------------------------------------+
 |                      Topology Simplification                       |
 +--------------------------------------------------------------------+

 +--------------------------------------------------------------------+
 |                       ****** Warning ******                        |
 |                                                                    |
 | Topology simplification is activated with the following            |
 | restrictions:                                                      |
 |                                                                    |
 | - Mesh regions referenced only within User Fortran and NOT         |
 |   in the command file will cause the solver to stop.               |
 | - The solver will stop during any "Edit Run in Progress" step      |
 |   if new 2D regions are referenced.                                |
 +--------------------------------------------------------------------+

 +--------------------------------------------------------------------+
 |                          Mesh Statistics                           |
 +--------------------------------------------------------------------+
 | Domain Name          | Orthog. Angle | Exp. Factor  | Aspect Ratio |
 +----------------------+---------------+--------------+--------------+
 |                      | Minimum [deg] |   Maximum    |    Maximum   |
 +----------------------+---------------+--------------+--------------+
 | Default Domain       |       30.4 ok |        13 ok |        22 OK |
 +----------------------+---------------+--------------+--------------+
 |                      |  %!  %ok  %OK | %!  %ok  %OK | %!  %ok  %OK |
 +----------------------+---------------+--------------+--------------+
 | Default Domain       |   0    2   98 |  0    1   99 |  0    0  100 |
 +----------------------+---------------+--------------+--------------+

 Domain Name : Default Domain

     Total Number of Nodes                                =       15627

     Total Number of Elements                             =       49164
         Total Number of Tetrahedrons                     =       31179
         Total Number of Prisms                           =       17985

     Total Number of Faces                                =        4877

 +--------------------------------------------------------------------+
 |      Initial Conditions Supplied by Fields in the Input Files      |
 +--------------------------------------------------------------------+

 Domain Name : Default Domain
     Absolute Pressure
     Courant Number
     Eddy Viscosity
     Pressure
     Pressure.Gradient
     Shear Strain Rate
     Specific Heat Capacity at Constant Pressure
     Specific Volume
     Static Enthalpy
     Static Enthalpy.Gradient
     Static Entropy
     Temperature
     Total Pressure
     Total Temperature
     Turbulence Eddy Dissipation
     Turbulence Eddy Dissipation.Beta
     Turbulence Eddy Dissipation.Gradient
     Turbulence Eddy Frequency
     Turbulence Kinetic Energy
     Turbulence Kinetic Energy.Beta
     Turbulence Kinetic Energy.Gradient
     Velocity
     Velocity.Beta
     Velocity.Gradient
     Volume Porosity

 +--------------------------------------------------------------------+
 |                     Average Scale Information                      |
 +--------------------------------------------------------------------+

 Domain Name : Default Domain
     Global Length                                         = 3.2195E+00
     Minimum Extent                                        = 4.0000E+00
     Maximum Extent                                        = 6.0000E+00
     Density                                               = 9.9700E+02
     Dynamic Viscosity                                     = 8.8990E-04
     Velocity                                              = 3.5250E+00
     Advection Time                                        = 9.1333E-01
     Reynolds Number                                       = 1.2714E+07
     Thermal Conductivity                                  = 6.0690E-01
     Specific Heat Capacity at Constant Pressure           = 4.1817E+03
     Prandtl Number                                        = 6.1316E+00
     Temperature Range                                     = 3.0021E+01

 +--------------------------------------------------------------------+
 |                Checking for Isolated Fluid Regions                 |
 +--------------------------------------------------------------------+
 
 No isolated fluid regions were found.

 +--------------------------------------------------------------------+
 |              The Equations Solved in This Calculation              |
 +--------------------------------------------------------------------+

 Subsystem : Momentum and Mass

   U-Mom
   V-Mom
   W-Mom
   P-Mass

 Subsystem : Heat Transfer

   H-Energy

 Subsystem : TurbKE and Diss.K

   K-TurbKE
   E-Diss.K
                   
 CFD Solver started: Wed Dec  5 13:40:13 2018


 +--------------------------------------------------------------------+
 |                       Convergence History                          |
 +--------------------------------------------------------------------+

 ======================================================================
 |                        Timescale Information                       |
 ----------------------------------------------------------------------
 |       Equation       |         Type          |      Timescale      |
 +----------------------+-----------------------+---------------------+
 | U-Mom                | Auto Timescale        |     2.85465E-01     |
 | V-Mom                | Auto Timescale        |     2.85465E-01     |
 | W-Mom                | Auto Timescale        |     2.85465E-01     |
 +----------------------+-----------------------+---------------------+
 | H-Energy             | Auto Timescale        |     2.85465E-01     |
 +----------------------+-----------------------+---------------------+
 | K-TurbKE             | Auto Timescale        |     2.85465E-01     |
 | E-Diss.K             | Auto Timescale        |     2.85465E-01     |
 +----------------------+-----------------------+---------------------+

 ======================================================================
 OUTER LOOP ITERATION =  101 (    1) CPU SECONDS = 5.997E+01 (3.743E+00)
 ----------------------------------------------------------------------
 |       Equation       | Rate | RMS Res | Max Res |  Linear Solution |
 +----------------------+------+---------+---------+------------------+
 | U-Mom                | 0.99 | 2.0E-04 | 3.5E-03 |       2.2E-02  OK|
 | V-Mom                | 0.99 | 2.0E-04 | 1.2E-03 |       2.2E-02  OK|
 | W-Mom                | 0.97 | 8.1E-05 | 1.5E-03 |       1.0E-01  ok|
 | P-Mass               | 1.01 | 3.7E-05 | 3.6E-04 | 13.8  3.8E-02  OK|
 +----------------------+------+---------+---------+------------------+
 | H-Energy             | 0.96 | 3.7E-04 | 7.6E-03 |  5.5  2.7E-02  OK|
 +----------------------+------+---------+---------+------------------+
 | K-TurbKE             | 0.98 | 2.1E-04 | 1.8E-03 |  5.5  3.6E-02  OK|
 | E-Diss.K             | 1.00 | 2.4E-04 | 4.2E-03 |  7.6  1.0E-02  OK|
 +----------------------+------+---------+---------+------------------+

 ======================================================================
 OUTER LOOP ITERATION =  102 (    2) CPU SECONDS = 6.069E+01 (4.461E+00)
 ----------------------------------------------------------------------
 |       Equation       | Rate | RMS Res | Max Res |  Linear Solution |
 +----------------------+------+---------+---------+------------------+
 | U-Mom                | 0.98 | 1.9E-04 | 3.4E-03 |       2.2E-02  OK|
 | V-Mom                | 0.98 | 2.0E-04 | 1.2E-03 |       2.3E-02  OK|
 | W-Mom                | 0.97 | 7.9E-05 | 1.4E-03 |       1.0E-01  ok|
 | P-Mass               | 1.00 | 3.7E-05 | 3.6E-04 | 13.8  3.8E-02  OK|
 +----------------------+------+---------+---------+------------------+
 | H-Energy             | 0.97 | 3.6E-04 | 7.3E-03 |  5.5  2.7E-02  OK|
 +----------------------+------+---------+---------+------------------+
 | K-TurbKE             | 0.99 | 2.1E-04 | 1.7E-03 |  5.5  3.6E-02  OK|
 | E-Diss.K             | 1.01 | 2.4E-04 | 4.3E-03 |  7.6  1.0E-02  OK|
 +----------------------+------+---------+---------+------------------+

 ======================================================================
 OUTER LOOP ITERATION =  103 (    3) CPU SECONDS = 6.127E+01 (5.043E+00)
 ----------------------------------------------------------------------
 |       Equation       | Rate | RMS Res | Max Res |  Linear Solution |
 +----------------------+------+---------+---------+------------------+
 | U-Mom                | 0.99 | 1.9E-04 | 3.2E-03 |       2.2E-02  OK|
 | V-Mom                | 0.99 | 2.0E-04 | 1.2E-03 |       2.3E-02  OK|
 | W-Mom                | 0.97 | 7.7E-05 | 1.4E-03 |       1.1E-01  ok|
 | P-Mass               | 1.00 | 3.6E-05 | 3.5E-04 | 13.8  3.9E-02  OK|
 +----------------------+------+---------+---------+------------------+
 | H-Energy             | 0.97 | 3.5E-04 | 7.0E-03 |  5.5  2.7E-02  OK|
 +----------------------+------+---------+---------+------------------+
 | K-TurbKE             | 0.99 | 2.1E-04 | 1.5E-03 |  5.5  3.7E-02  OK|
 | E-Diss.K             | 1.02 | 2.4E-04 | 4.4E-03 |  7.6  1.0E-02  OK|
 +----------------------+------+---------+---------+------------------+

 ======================================================================
 OUTER LOOP ITERATION =  104 (    4) CPU SECONDS = 6.184E+01 (5.609E+00)
 ----------------------------------------------------------------------
 |       Equation       | Rate | RMS Res | Max Res |  Linear Solution |
 +----------------------+------+---------+---------+------------------+
 | U-Mom                | 0.99 | 1.9E-04 | 3.1E-03 |       2.3E-02  OK|
 | V-Mom                | 0.99 | 2.0E-04 | 1.2E-03 |       2.3E-02  OK|
 | W-Mom                | 0.97 | 7.5E-05 | 1.4E-03 |       1.1E-01  ok|
 | P-Mass               | 1.00 | 3.6E-05 | 3.5E-04 | 13.8  3.9E-02  OK|
 +----------------------+------+---------+---------+------------------+
 | H-Energy             | 0.97 | 3.4E-04 | 6.8E-03 |  5.5  2.8E-02  OK|
 +----------------------+------+---------+---------+------------------+
 | K-TurbKE             | 0.99 | 2.1E-04 | 1.4E-03 |  5.5  3.7E-02  OK|
 | E-Diss.K             | 1.02 | 2.5E-04 | 4.5E-03 |  7.6  1.1E-02  OK|
 +----------------------+------+---------+---------+------------------+

 ======================================================================
 OUTER LOOP ITERATION =  105 (    5) CPU SECONDS = 6.239E+01 (6.166E+00)
 ----------------------------------------------------------------------
 |       Equation       | Rate | RMS Res | Max Res |  Linear Solution |
 +----------------------+------+---------+---------+------------------+
 | U-Mom                | 0.99 | 1.9E-04 | 3.0E-03 |       2.3E-02  OK|
 | V-Mom                | 0.99 | 1.9E-04 | 1.2E-03 |       2.4E-02  OK|
 | W-Mom                | 0.97 | 7.3E-05 | 1.4E-03 |       1.2E-01  ok|
 | P-Mass               | 1.00 | 3.7E-05 | 3.4E-04 | 13.8  4.0E-02  OK|
 +----------------------+------+---------+---------+------------------+
 | H-Energy             | 0.97 | 3.3E-04 | 6.7E-03 |  5.5  2.8E-02  OK|
 +----------------------+------+---------+---------+------------------+
 | K-TurbKE             | 0.99 | 2.0E-04 | 1.4E-03 |  5.5  3.8E-02  OK|
 | E-Diss.K             | 1.02 | 2.5E-04 | 4.5E-03 |  7.6  1.1E-02  OK|
 +----------------------+------+---------+---------+------------------+

 ======================================================================
 |                        Timescale Information                       |
 ----------------------------------------------------------------------
 |       Equation       |         Type          |      Timescale      |
 +----------------------+-----------------------+---------------------+
 | U-Mom                | Auto Timescale        |     2.76096E-01     |
 | V-Mom                | Auto Timescale        |     2.76096E-01     |
 | W-Mom                | Auto Timescale        |     2.76096E-01     |
 +----------------------+-----------------------+---------------------+
 | H-Energy             | Auto Timescale        |     2.76096E-01     |
 +----------------------+-----------------------+---------------------+
 | K-TurbKE             | Auto Timescale        |     2.76096E-01     |
 | E-Diss.K             | Auto Timescale        |     2.76096E-01     |
 +----------------------+-----------------------+---------------------+

 ======================================================================
 OUTER LOOP ITERATION =  106 (    6) CPU SECONDS = 6.298E+01 (6.757E+00)
 ----------------------------------------------------------------------
 |       Equation       | Rate | RMS Res | Max Res |  Linear Solution |
 +----------------------+------+---------+---------+------------------+
 | U-Mom                | 0.99 | 1.8E-04 | 2.9E-03 |       2.2E-02  OK|
 | V-Mom                | 0.99 | 1.9E-04 | 1.2E-03 |       2.3E-02  OK|
 | W-Mom                | 0.98 | 7.1E-05 | 1.3E-03 |       1.2E-01  ok|
 | P-Mass               | 1.00 | 3.7E-05 | 3.4E-04 | 13.8  3.8E-02  OK|
 +----------------------+------+---------+---------+------------------+
 | H-Energy             | 0.96 | 3.1E-04 | 6.5E-03 |  5.5  2.7E-02  OK|
 +----------------------+------+---------+---------+------------------+
 | K-TurbKE             | 0.99 | 2.0E-04 | 1.3E-03 |  5.5  3.7E-02  OK|
 | E-Diss.K             | 1.00 | 2.5E-04 | 4.5E-03 |  7.6  1.1E-02  OK|
 +----------------------+------+---------+---------+------------------+

 ======================================================================
 OUTER LOOP ITERATION =  107 (    7) CPU SECONDS = 6.354E+01 (7.314E+00)
 ----------------------------------------------------------------------
 |       Equation       | Rate | RMS Res | Max Res |  Linear Solution |
 +----------------------+------+---------+---------+------------------+
 | U-Mom                | 0.99 | 1.8E-04 | 2.8E-03 |       2.3E-02  OK|
 | V-Mom                | 0.99 | 1.9E-04 | 1.2E-03 |       2.3E-02  OK|
 | W-Mom                | 0.97 | 6.9E-05 | 1.3E-03 |       1.2E-01  ok|
 | P-Mass               | 1.00 | 3.7E-05 | 3.4E-04 | 13.8  3.9E-02  OK|
 +----------------------+------+---------+---------+------------------+
 | H-Energy             | 0.97 | 3.0E-04 | 6.2E-03 |  5.5  2.7E-02  OK|
 +----------------------+------+---------+---------+------------------+
 | K-TurbKE             | 1.00 | 2.0E-04 | 1.3E-03 |  5.5  3.7E-02  OK|
 | E-Diss.K             | 1.01 | 2.6E-04 | 4.6E-03 |  7.6  1.1E-02  OK|
 +----------------------+------+---------+---------+------------------+

 ======================================================================
 OUTER LOOP ITERATION =  108 (    8) CPU SECONDS = 6.411E+01 (7.884E+00)
 ----------------------------------------------------------------------
 |       Equation       | Rate | RMS Res | Max Res |  Linear Solution |
 +----------------------+------+---------+---------+------------------+
 | U-Mom                | 0.99 | 1.8E-04 | 2.7E-03 |       2.3E-02  OK|
 | V-Mom                | 0.99 | 1.9E-04 | 1.2E-03 |       2.3E-02  OK|
 | W-Mom                | 0.97 | 6.7E-05 | 1.2E-03 |       1.3E-01  ok|
 | P-Mass               | 1.00 | 3.7E-05 | 3.3E-04 | 13.8  3.9E-02  OK|
 +----------------------+------+---------+---------+------------------+
 | H-Energy             | 0.97 | 2.9E-04 | 6.0E-03 |  5.5  2.8E-02  OK|
 +----------------------+------+---------+---------+------------------+
 | K-TurbKE             | 1.00 | 2.0E-04 | 1.3E-03 |  5.5  3.7E-02  OK|
 | E-Diss.K             | 1.02 | 2.6E-04 | 4.7E-03 |  7.6  1.1E-02  OK|
 +----------------------+------+---------+---------+------------------+

 ======================================================================
 OUTER LOOP ITERATION =  109 (    9) CPU SECONDS = 6.472E+01 (8.488E+00)
 ----------------------------------------------------------------------
 |       Equation       | Rate | RMS Res | Max Res |  Linear Solution |
 +----------------------+------+---------+---------+------------------+
 | U-Mom                | 0.99 | 1.8E-04 | 2.7E-03 |       2.3E-02  OK|
 | V-Mom                | 0.99 | 1.8E-04 | 1.2E-03 |       2.4E-02  OK|
 | W-Mom                | 0.97 | 6.6E-05 | 1.2E-03 |       1.4E-01  ok|
 | P-Mass               | 1.00 | 3.7E-05 | 3.3E-04 | 13.8  4.0E-02  OK|
 +----------------------+------+---------+---------+------------------+
 | H-Energy             | 0.97 | 2.9E-04 | 5.7E-03 |  5.5  2.8E-02  OK|
 +----------------------+------+---------+---------+------------------+
 | K-TurbKE             | 1.00 | 2.0E-04 | 1.3E-03 |  5.5  3.8E-02  OK|
 | E-Diss.K             | 1.02 | 2.6E-04 | 4.8E-03 |  7.6  1.1E-02  OK|
 +----------------------+------+---------+---------+------------------+

 ======================================================================
 OUTER LOOP ITERATION =  110 (   10) CPU SECONDS = 6.528E+01 (9.050E+00)
 ----------------------------------------------------------------------
 |       Equation       | Rate | RMS Res | Max Res |  Linear Solution |
 +----------------------+------+---------+---------+------------------+
 | U-Mom                | 0.99 | 1.8E-04 | 2.6E-03 |       2.3E-02  OK|
 | V-Mom                | 0.99 | 1.8E-04 | 1.2E-03 |       2.4E-02  OK|
 | W-Mom                | 0.98 | 6.4E-05 | 1.2E-03 |       1.4E-01  ok|
 | P-Mass               | 1.00 | 3.7E-05 | 3.3E-04 | 13.8  4.0E-02  OK|
 +----------------------+------+---------+---------+------------------+
 | H-Energy             | 0.97 | 2.8E-04 | 5.4E-03 |  5.5  2.8E-02  OK|
 +----------------------+------+---------+---------+------------------+
 | K-TurbKE             | 1.00 | 2.0E-04 | 1.2E-03 |  5.5  3.8E-02  OK|
 | E-Diss.K             | 1.01 | 2.7E-04 | 4.8E-03 |  7.6  1.1E-02  OK|
 +----------------------+------+---------+---------+------------------+

 ======================================================================
 |                        Timescale Information                       |
 ----------------------------------------------------------------------
 |       Equation       |         Type          |      Timescale      |
 +----------------------+-----------------------+---------------------+
 | U-Mom                | Auto Timescale        |     2.67475E-01     |
 | V-Mom                | Auto Timescale        |     2.67475E-01     |
 | W-Mom                | Auto Timescale        |     2.67475E-01     |
 +----------------------+-----------------------+---------------------+
 | H-Energy             | Auto Timescale        |     2.67475E-01     |
 +----------------------+-----------------------+---------------------+
 | K-TurbKE             | Auto Timescale        |     2.67475E-01     |
 | E-Diss.K             | Auto Timescale        |     2.67475E-01     |
 +----------------------+-----------------------+---------------------+

 ======================================================================
 OUTER LOOP ITERATION =  111 (   11) CPU SECONDS = 6.584E+01 (9.610E+00)
 ----------------------------------------------------------------------
 |       Equation       | Rate | RMS Res | Max Res |  Linear Solution |
 +----------------------+------+---------+---------+------------------+
 | U-Mom                | 0.99 | 1.7E-04 | 2.6E-03 |       2.3E-02  OK|
 | V-Mom                | 0.99 | 1.8E-04 | 1.3E-03 |       2.3E-02  OK|
 | W-Mom                | 0.98 | 6.3E-05 | 1.2E-03 |       1.4E-01  ok|
 | P-Mass               | 1.00 | 3.7E-05 | 3.3E-04 | 13.8  3.9E-02  OK|
 +----------------------+------+---------+---------+------------------+
 | H-Energy             | 0.97 | 2.7E-04 | 5.1E-03 |  5.5  2.8E-02  OK|
 +----------------------+------+---------+---------+------------------+
 | K-TurbKE             | 1.00 | 2.0E-04 | 1.2E-03 |  5.5  3.7E-02  OK|
 | E-Diss.K             | 0.99 | 2.7E-04 | 4.8E-03 |  7.6  1.1E-02  OK|
 +----------------------+------+---------+---------+------------------+

 ======================================================================
 OUTER LOOP ITERATION =  112 (   12) CPU SECONDS = 6.639E+01 (1.017E+01)
 ----------------------------------------------------------------------
 |       Equation       | Rate | RMS Res | Max Res |  Linear Solution |
 +----------------------+------+---------+---------+------------------+
 | U-Mom                | 0.99 | 1.7E-04 | 2.5E-03 |       2.3E-02  OK|
 | V-Mom                | 0.99 | 1.8E-04 | 1.3E-03 |       2.3E-02  OK|
 | W-Mom                | 0.97 | 6.1E-05 | 1.2E-03 |       1.4E-01  ok|
 | P-Mass               | 0.99 | 3.7E-05 | 3.3E-04 | 13.8  3.9E-02  OK|
 +----------------------+------+---------+---------+------------------+
 | H-Energy             | 0.97 | 2.6E-04 | 4.9E-03 |  5.5  2.8E-02  OK|
 +----------------------+------+---------+---------+------------------+
 | K-TurbKE             | 1.00 | 2.0E-04 | 1.2E-03 |  5.5  3.7E-02  OK|
 | E-Diss.K             | 1.01 | 2.7E-04 | 4.9E-03 |  7.6  1.1E-02  OK|
 +----------------------+------+---------+---------+------------------+

 ======================================================================
 OUTER LOOP ITERATION =  113 (   13) CPU SECONDS = 6.697E+01 (1.074E+01)
 ----------------------------------------------------------------------
 |       Equation       | Rate | RMS Res | Max Res |  Linear Solution |
 +----------------------+------+---------+---------+------------------+
 | U-Mom                | 0.99 | 1.7E-04 | 2.4E-03 |       2.3E-02  OK|
 | V-Mom                | 0.99 | 1.8E-04 | 1.3E-03 |       2.4E-02  OK|
 | W-Mom                | 0.98 | 6.0E-05 | 1.2E-03 |       1.5E-01  ok|
 | P-Mass               | 0.99 | 3.6E-05 | 3.2E-04 | 13.8  3.9E-02  OK|
 +----------------------+------+---------+---------+------------------+
 | H-Energy             | 0.97 | 2.5E-04 | 4.7E-03 |  5.5  2.8E-02  OK|
 +----------------------+------+---------+---------+------------------+
 | K-TurbKE             | 1.00 | 2.0E-04 | 1.2E-03 |  5.5  3.8E-02  OK|
 | E-Diss.K             | 1.01 | 2.7E-04 | 4.9E-03 |  7.6  1.1E-02  OK|
 +----------------------+------+---------+---------+------------------+

 ======================================================================
 OUTER LOOP ITERATION =  114 (   14) CPU SECONDS = 6.753E+01 (1.131E+01)
 ----------------------------------------------------------------------
 |       Equation       | Rate | RMS Res | Max Res |  Linear Solution |
 +----------------------+------+---------+---------+------------------+
 | U-Mom                | 0.99 | 1.7E-04 | 2.4E-03 |       2.3E-02  OK|
 | V-Mom                | 0.99 | 1.7E-04 | 1.3E-03 |       2.4E-02  OK|
 | W-Mom                | 0.98 | 5.8E-05 | 1.1E-03 |       1.5E-01  ok|
 | P-Mass               | 1.00 | 3.6E-05 | 3.2E-04 | 13.8  4.0E-02  OK|
 +----------------------+------+---------+---------+------------------+
 | H-Energy             | 0.98 | 2.5E-04 | 4.6E-03 |  5.5  2.9E-02  OK|
 +----------------------+------+---------+---------+------------------+
 | K-TurbKE             | 1.00 | 2.0E-04 | 1.2E-03 |  5.5  3.8E-02  OK|
 | E-Diss.K             | 1.01 | 2.8E-04 | 5.0E-03 |  7.6  1.1E-02  OK|
 +----------------------+------+---------+---------+------------------+

 ======================================================================
 OUTER LOOP ITERATION =  115 (   15) CPU SECONDS = 6.809E+01 (1.186E+01)
 ----------------------------------------------------------------------
 |       Equation       | Rate | RMS Res | Max Res |  Linear Solution |
 +----------------------+------+---------+---------+------------------+
 | U-Mom                | 0.99 | 1.7E-04 | 2.3E-03 |       2.3E-02  OK|
 | V-Mom                | 0.99 | 1.7E-04 | 1.3E-03 |       2.4E-02  OK|
 | W-Mom                | 0.98 | 5.7E-05 | 1.1E-03 |       1.6E-01  ok|
 | P-Mass               | 1.00 | 3.6E-05 | 3.2E-04 | 13.8  4.0E-02  OK|
 +----------------------+------+---------+---------+------------------+
 | H-Energy             | 0.97 | 2.4E-04 | 4.5E-03 |  5.5  2.9E-02  OK|
 +----------------------+------+---------+---------+------------------+
 | K-TurbKE             | 1.00 | 2.0E-04 | 1.1E-03 |  5.5  3.8E-02  OK|
 | E-Diss.K             | 1.01 | 2.8E-04 | 5.0E-03 |  7.6  1.1E-02  OK|
 +----------------------+------+---------+---------+------------------+

 ======================================================================
 |                        Timescale Information                       |
 ----------------------------------------------------------------------
 |       Equation       |         Type          |      Timescale      |
 +----------------------+-----------------------+---------------------+
 | U-Mom                | Auto Timescale        |     2.59548E-01     |
 | V-Mom                | Auto Timescale        |     2.59548E-01     |
 | W-Mom                | Auto Timescale        |     2.59548E-01     |
 +----------------------+-----------------------+---------------------+
 | H-Energy             | Auto Timescale        |     2.59548E-01     |
 +----------------------+-----------------------+---------------------+
 | K-TurbKE             | Auto Timescale        |     2.59548E-01     |
 | E-Diss.K             | Auto Timescale        |     2.59548E-01     |
 +----------------------+-----------------------+---------------------+

 ======================================================================
 OUTER LOOP ITERATION =  116 (   16) CPU SECONDS = 6.865E+01 (1.242E+01)
 ----------------------------------------------------------------------
 |       Equation       | Rate | RMS Res | Max Res |  Linear Solution |
 +----------------------+------+---------+---------+------------------+
 | U-Mom                | 0.99 | 1.7E-04 | 2.3E-03 |       2.3E-02  OK|
 | V-Mom                | 0.99 | 1.7E-04 | 1.3E-03 |       2.3E-02  OK|
 | W-Mom                | 0.98 | 5.6E-05 | 1.1E-03 |       1.5E-01  ok|
 | P-Mass               | 1.00 | 3.6E-05 | 3.2E-04 | 13.8  3.9E-02  OK|
 +----------------------+------+---------+---------+------------------+
 | H-Energy             | 0.97 | 2.3E-04 | 4.5E-03 |  5.5  2.9E-02  OK|
 +----------------------+------+---------+---------+------------------+
 | K-TurbKE             | 1.00 | 2.0E-04 | 1.1E-03 |  5.5  3.7E-02  OK|
 | E-Diss.K             | 0.99 | 2.8E-04 | 5.0E-03 |  7.6  1.1E-02  OK|
 +----------------------+------+---------+---------+------------------+

 ======================================================================
 OUTER LOOP ITERATION =  117 (   17) CPU SECONDS = 6.922E+01 (1.299E+01)
 ----------------------------------------------------------------------
 |       Equation       | Rate | RMS Res | Max Res |  Linear Solution |
 +----------------------+------+---------+---------+------------------+
 | U-Mom                | 0.99 | 1.6E-04 | 2.2E-03 |       2.3E-02  OK|
 | V-Mom                | 0.99 | 1.7E-04 | 1.3E-03 |       2.3E-02  OK|
 | W-Mom                | 0.98 | 5.5E-05 | 1.1E-03 |       1.6E-01  ok|
 | P-Mass               | 0.99 | 3.6E-05 | 3.1E-04 | 13.8  3.9E-02  OK|
 +----------------------+------+---------+---------+------------------+
 | H-Energy             | 0.97 | 2.3E-04 | 4.5E-03 |  5.5  2.9E-02  OK|
 +----------------------+------+---------+---------+------------------+
 | K-TurbKE             | 1.00 | 2.0E-04 | 1.1E-03 |  5.5  3.7E-02  OK|
 | E-Diss.K             | 1.01 | 2.8E-04 | 5.0E-03 |  7.6  1.1E-02  OK|
 +----------------------+------+---------+---------+------------------+

 ======================================================================
 OUTER LOOP ITERATION =  118 (   18) CPU SECONDS = 6.979E+01 (1.356E+01)
 ----------------------------------------------------------------------
 |       Equation       | Rate | RMS Res | Max Res |  Linear Solution |
 +----------------------+------+---------+---------+------------------+
 | U-Mom                | 0.99 | 1.6E-04 | 2.1E-03 |       2.3E-02  OK|
 | V-Mom                | 0.99 | 1.7E-04 | 1.2E-03 |       2.4E-02  OK|
 | W-Mom                | 0.98 | 5.4E-05 | 1.1E-03 |       1.6E-01  ok|
 | P-Mass               | 0.99 | 3.6E-05 | 3.1E-04 | 13.8  3.9E-02  OK|
 +----------------------+------+---------+---------+------------------+
 | H-Energy             | 0.97 | 2.2E-04 | 4.4E-03 |  5.5  3.0E-02  OK|
 +----------------------+------+---------+---------+------------------+
 | K-TurbKE             | 1.00 | 2.0E-04 | 1.1E-03 |  5.5  3.8E-02  OK|
 | E-Diss.K             | 1.01 | 2.8E-04 | 5.0E-03 |  7.6  1.1E-02  OK|
 +----------------------+------+---------+---------+------------------+

 ======================================================================
 OUTER LOOP ITERATION =  119 (   19) CPU SECONDS = 7.035E+01 (1.413E+01)
 ----------------------------------------------------------------------
 |       Equation       | Rate | RMS Res | Max Res |  Linear Solution |
 +----------------------+------+---------+---------+------------------+
 | U-Mom                | 0.99 | 1.6E-04 | 2.0E-03 |       2.3E-02  OK|
 | V-Mom                | 0.99 | 1.7E-04 | 1.3E-03 |       2.4E-02  OK|
 | W-Mom                | 0.99 | 5.3E-05 | 1.1E-03 |       1.6E-01  ok|
 | P-Mass               | 1.00 | 3.6E-05 | 3.1E-04 | 13.8  4.0E-02  OK|
 +----------------------+------+---------+---------+------------------+
 | H-Energy             | 0.98 | 2.2E-04 | 4.3E-03 |  5.5  3.1E-02  OK|
 +----------------------+------+---------+---------+------------------+
 | K-TurbKE             | 1.00 | 2.0E-04 | 1.1E-03 |  5.5  3.8E-02  OK|
 | E-Diss.K             | 1.01 | 2.8E-04 | 5.0E-03 |  7.6  1.1E-02  OK|
 +----------------------+------+---------+---------+------------------+

 ======================================================================
 OUTER LOOP ITERATION =  120 (   20) CPU SECONDS = 7.092E+01 (1.469E+01)
 ----------------------------------------------------------------------
 |       Equation       | Rate | RMS Res | Max Res |  Linear Solution |
 +----------------------+------+---------+---------+------------------+
 | U-Mom                | 0.99 | 1.6E-04 | 2.0E-03 |       2.3E-02  OK|
 | V-Mom                | 0.99 | 1.7E-04 | 1.4E-03 |       2.4E-02  OK|
 | W-Mom                | 0.99 | 5.3E-05 | 1.0E-03 |       1.7E-01  ok|
 | P-Mass               | 1.00 | 3.6E-05 | 3.1E-04 | 13.8  4.0E-02  OK|
 +----------------------+------+---------+---------+------------------+
 | H-Energy             | 0.98 | 2.1E-04 | 4.2E-03 |  5.5  3.1E-02  OK|
 +----------------------+------+---------+---------+------------------+
 | K-TurbKE             | 1.00 | 2.0E-04 | 1.1E-03 |  5.5  3.8E-02  OK|
 | E-Diss.K             | 1.01 | 2.9E-04 | 5.1E-03 |  7.6  1.1E-02  OK|
 +----------------------+------+---------+---------+------------------+

 ======================================================================
 |                        Timescale Information                       |
 ----------------------------------------------------------------------
 |       Equation       |         Type          |      Timescale      |
 +----------------------+-----------------------+---------------------+
 | U-Mom                | Auto Timescale        |     2.52257E-01     |
 | V-Mom                | Auto Timescale        |     2.52257E-01     |
 | W-Mom                | Auto Timescale        |     2.52257E-01     |
 +----------------------+-----------------------+---------------------+
 | H-Energy             | Auto Timescale        |     2.52257E-01     |
 +----------------------+-----------------------+---------------------+
 | K-TurbKE             | Auto Timescale        |     2.52257E-01     |
 | E-Diss.K             | Auto Timescale        |     2.52257E-01     |
 +----------------------+-----------------------+---------------------+

 ======================================================================
 OUTER LOOP ITERATION =  121 (   21) CPU SECONDS = 7.147E+01 (1.524E+01)
 ----------------------------------------------------------------------
 |       Equation       | Rate | RMS Res | Max Res |  Linear Solution |
 +----------------------+------+---------+---------+------------------+
 | U-Mom                | 0.99 | 1.6E-04 | 1.7E-03 |       2.3E-02  OK|
 | V-Mom                | 0.99 | 1.6E-04 | 1.5E-03 |       2.3E-02  OK|
 | W-Mom                | 0.99 | 5.2E-05 | 1.0E-03 |       1.7E-01  ok|
 | P-Mass               | 1.00 | 3.6E-05 | 3.0E-04 | 13.8  3.9E-02  OK|
 +----------------------+------+---------+---------+------------------+
 | H-Energy             | 0.97 | 2.0E-04 | 4.1E-03 |  5.5  3.1E-02  OK|
 +----------------------+------+---------+---------+------------------+
 | K-TurbKE             | 1.00 | 2.0E-04 | 1.1E-03 |  5.5  3.7E-02  OK|
 | E-Diss.K             | 0.99 | 2.8E-04 | 5.0E-03 |  7.6  1.1E-02  OK|
 +----------------------+------+---------+---------+------------------+

 ======================================================================
 OUTER LOOP ITERATION =  122 (   22) CPU SECONDS = 7.206E+01 (1.583E+01)
 ----------------------------------------------------------------------
 |       Equation       | Rate | RMS Res | Max Res |  Linear Solution |
 +----------------------+------+---------+---------+------------------+
 | U-Mom                | 0.99 | 1.6E-04 | 1.5E-03 |       2.3E-02  OK|
 | V-Mom                | 0.99 | 1.6E-04 | 1.6E-03 |       2.4E-02  OK|
 | W-Mom                | 0.99 | 5.2E-05 | 1.1E-03 |       1.7E-01  ok|
 | P-Mass               | 0.99 | 3.5E-05 | 3.0E-04 | 13.8  3.9E-02  OK|
 +----------------------+------+---------+---------+------------------+
 | H-Energy             | 0.98 | 2.0E-04 | 4.0E-03 |  5.5  3.1E-02  OK|
 +----------------------+------+---------+---------+------------------+
 | K-TurbKE             | 1.00 | 2.0E-04 | 1.1E-03 |  5.5  3.7E-02  OK|
 | E-Diss.K             | 1.00 | 2.8E-04 | 5.0E-03 |  7.6  1.1E-02  OK|
 +----------------------+------+---------+---------+------------------+

 ======================================================================
 OUTER LOOP ITERATION =  123 (   23) CPU SECONDS = 7.263E+01 (1.640E+01)
 ----------------------------------------------------------------------
 |       Equation       | Rate | RMS Res | Max Res |  Linear Solution |
 +----------------------+------+---------+---------+------------------+
 | U-Mom                | 0.99 | 1.5E-04 | 1.5E-03 |       2.3E-02  OK|
 | V-Mom                | 0.99 | 1.6E-04 | 1.8E-03 |       2.4E-02  OK|
 | W-Mom                | 0.99 | 5.1E-05 | 1.2E-03 |       1.7E-01  ok|
 | P-Mass               | 0.99 | 3.5E-05 | 3.0E-04 | 13.8  3.9E-02  OK|
 +----------------------+------+---------+---------+------------------+
 | H-Energy             | 0.98 | 2.0E-04 | 3.9E-03 |  5.5  3.1E-02  OK|
 +----------------------+------+---------+---------+------------------+
 | K-TurbKE             | 1.00 | 2.0E-04 | 1.1E-03 |  5.5  3.8E-02  OK|
 | E-Diss.K             | 1.01 | 2.8E-04 | 5.0E-03 |  7.6  1.1E-02  OK|
 +----------------------+------+---------+---------+------------------+

 ======================================================================
 OUTER LOOP ITERATION =  124 (   24) CPU SECONDS = 7.321E+01 (1.698E+01)
 ----------------------------------------------------------------------
 |       Equation       | Rate | RMS Res | Max Res |  Linear Solution |
 +----------------------+------+---------+---------+------------------+
 | U-Mom                | 0.99 | 1.5E-04 | 1.7E-03 |       2.3E-02  OK|
 | V-Mom                | 0.99 | 1.6E-04 | 2.0E-03 |       2.4E-02  OK|
 | W-Mom                | 0.99 | 5.1E-05 | 1.2E-03 |       1.7E-01  ok|
 | P-Mass               | 1.00 | 3.5E-05 | 2.9E-04 | 13.8  3.9E-02  OK|
 +----------------------+------+---------+---------+------------------+
 | H-Energy             | 0.98 | 1.9E-04 | 3.9E-03 |  5.5  3.1E-02  OK|
 +----------------------+------+---------+---------+------------------+
 | K-TurbKE             | 1.00 | 2.0E-04 | 1.1E-03 |  5.5  3.8E-02  OK|
 | E-Diss.K             | 1.01 | 2.9E-04 | 5.0E-03 |  7.6  1.1E-02  OK|
 +----------------------+------+---------+---------+------------------+

 ======================================================================
 OUTER LOOP ITERATION =  125 (   25) CPU SECONDS = 7.378E+01 (1.755E+01)
 ----------------------------------------------------------------------
 |       Equation       | Rate | RMS Res | Max Res |  Linear Solution |
 +----------------------+------+---------+---------+------------------+
 | U-Mom                | 0.99 | 1.5E-04 | 1.8E-03 |       2.3E-02  OK|
 | V-Mom                | 0.99 | 1.6E-04 | 2.2E-03 |       2.4E-02  OK|
 | W-Mom                | 0.99 | 5.0E-05 | 1.3E-03 |       1.8E-01  ok|
 | P-Mass               | 1.00 | 3.5E-05 | 2.9E-04 | 13.8  4.0E-02  OK|
 +----------------------+------+---------+---------+------------------+
 | H-Energy             | 0.98 | 1.9E-04 | 3.8E-03 |  5.5  3.2E-02  OK|
 +----------------------+------+---------+---------+------------------+
 | K-TurbKE             | 1.00 | 2.0E-04 | 1.1E-03 |  5.5  3.8E-02  OK|
 | E-Diss.K             | 1.00 | 2.9E-04 | 5.1E-03 |  7.6  1.1E-02  OK|
 +----------------------+------+---------+---------+------------------+

 ======================================================================
 |                        Timescale Information                       |
 ----------------------------------------------------------------------
 |       Equation       |         Type          |      Timescale      |
 +----------------------+-----------------------+---------------------+
 | U-Mom                | Auto Timescale        |     2.45542E-01     |
 | V-Mom                | Auto Timescale        |     2.45542E-01     |
 | W-Mom                | Auto Timescale        |     2.45542E-01     |
 +----------------------+-----------------------+---------------------+
 | H-Energy             | Auto Timescale        |     2.45542E-01     |
 +----------------------+-----------------------+---------------------+
 | K-TurbKE             | Auto Timescale        |     2.45542E-01     |
 | E-Diss.K             | Auto Timescale        |     2.45542E-01     |
 +----------------------+-----------------------+---------------------+

 ======================================================================
 OUTER LOOP ITERATION =  126 (   26) CPU SECONDS = 7.436E+01 (1.813E+01)
 ----------------------------------------------------------------------
 |       Equation       | Rate | RMS Res | Max Res |  Linear Solution |
 +----------------------+------+---------+---------+------------------+
 | U-Mom                | 0.99 | 1.5E-04 | 2.0E-03 |       2.3E-02  OK|
 | V-Mom                | 0.99 | 1.6E-04 | 2.4E-03 |       2.3E-02  OK|
 | W-Mom                | 0.99 | 5.0E-05 | 1.4E-03 |       1.7E-01  ok|
 | P-Mass               | 1.00 | 3.5E-05 | 2.9E-04 | 13.8  3.9E-02  OK|
 +----------------------+------+---------+---------+------------------+
 | H-Energy             | 0.97 | 1.8E-04 | 3.7E-03 |  5.5  3.1E-02  OK|
 +----------------------+------+---------+---------+------------------+
 | K-TurbKE             | 0.99 | 2.0E-04 | 1.1E-03 |  5.5  3.7E-02  OK|
 | E-Diss.K             | 0.99 | 2.8E-04 | 5.0E-03 |  7.6  1.1E-02  OK|
 +----------------------+------+---------+---------+------------------+

 ======================================================================
 OUTER LOOP ITERATION =  127 (   27) CPU SECONDS = 7.492E+01 (1.869E+01)
 ----------------------------------------------------------------------
 |       Equation       | Rate | RMS Res | Max Res |  Linear Solution |
 +----------------------+------+---------+---------+------------------+
 | U-Mom                | 0.99 | 1.5E-04 | 2.1E-03 |       2.3E-02  OK|
 | V-Mom                | 0.99 | 1.6E-04 | 2.5E-03 |       2.4E-02  OK|
 | W-Mom                | 0.99 | 5.0E-05 | 1.4E-03 |       1.7E-01  ok|
 | P-Mass               | 0.99 | 3.4E-05 | 2.9E-04 | 13.8  3.9E-02  OK|
 +----------------------+------+---------+---------+------------------+
 | H-Energy             | 0.98 | 1.8E-04 | 3.6E-03 |  5.5  3.2E-02  OK|
 +----------------------+------+---------+---------+------------------+
 | K-TurbKE             | 1.00 | 2.0E-04 | 1.1E-03 |  5.5  3.7E-02  OK|
 | E-Diss.K             | 1.00 | 2.8E-04 | 5.0E-03 |  7.6  1.1E-02  OK|
 +----------------------+------+---------+---------+------------------+

 ======================================================================
 OUTER LOOP ITERATION =  128 (   28) CPU SECONDS = 7.549E+01 (1.927E+01)
 ----------------------------------------------------------------------
 |       Equation       | Rate | RMS Res | Max Res |  Linear Solution |
 +----------------------+------+---------+---------+------------------+
 | U-Mom                | 0.99 | 1.5E-04 | 2.2E-03 |       2.3E-02  OK|
 | V-Mom                | 0.99 | 1.6E-04 | 2.7E-03 |       2.4E-02  OK|
 | W-Mom                | 1.00 | 5.0E-05 | 1.5E-03 |       1.8E-01  ok|
 | P-Mass               | 0.99 | 3.4E-05 | 2.8E-04 | 13.8  3.9E-02  OK|
 +----------------------+------+---------+---------+------------------+
 | H-Energy             | 0.98 | 1.7E-04 | 3.6E-03 |  5.5  3.2E-02  OK|
 +----------------------+------+---------+---------+------------------+
 | K-TurbKE             | 1.00 | 2.0E-04 | 1.1E-03 |  5.5  3.7E-02  OK|
 | E-Diss.K             | 1.00 | 2.8E-04 | 5.0E-03 |  7.6  1.1E-02  OK|
 +----------------------+------+---------+---------+------------------+

 ======================================================================
 OUTER LOOP ITERATION =  129 (   29) CPU SECONDS = 7.605E+01 (1.983E+01)
 ----------------------------------------------------------------------
 |       Equation       | Rate | RMS Res | Max Res |  Linear Solution |
 +----------------------+------+---------+---------+------------------+
 | U-Mom                | 0.99 | 1.5E-04 | 2.4E-03 |       2.3E-02  OK|
 | V-Mom                | 0.99 | 1.5E-04 | 2.8E-03 |       2.4E-02  OK|
 | W-Mom                | 1.00 | 4.9E-05 | 1.5E-03 |       1.8E-01  ok|
 | P-Mass               | 0.99 | 3.4E-05 | 2.8E-04 | 13.8  3.9E-02  OK|
 +----------------------+------+---------+---------+------------------+
 | H-Energy             | 0.98 | 1.7E-04 | 3.5E-03 |  5.5  3.3E-02  OK|
 +----------------------+------+---------+---------+------------------+
 | K-TurbKE             | 1.00 | 2.0E-04 | 1.1E-03 |  5.5  3.7E-02  OK|
 | E-Diss.K             | 1.00 | 2.8E-04 | 5.0E-03 |  7.6  1.1E-02  OK|
 +----------------------+------+---------+---------+------------------+

 ======================================================================
 OUTER LOOP ITERATION =  130 (   30) CPU SECONDS = 7.666E+01 (2.043E+01)
 ----------------------------------------------------------------------
 |       Equation       | Rate | RMS Res | Max Res |  Linear Solution |
 +----------------------+------+---------+---------+------------------+
 | U-Mom                | 0.99 | 1.5E-04 | 2.6E-03 |       2.3E-02  OK|
 | V-Mom                | 1.00 | 1.5E-04 | 3.1E-03 |       2.4E-02  OK|
 | W-Mom                | 1.00 | 4.9E-05 | 1.5E-03 |       1.8E-01  ok|
 | P-Mass               | 1.00 | 3.4E-05 | 2.8E-04 | 13.8  4.0E-02  OK|
 +----------------------+------+---------+---------+------------------+
 | H-Energy             | 0.98 | 1.7E-04 | 3.4E-03 |  5.5  3.3E-02  OK|
 +----------------------+------+---------+---------+------------------+
 | K-TurbKE             | 1.00 | 2.0E-04 | 1.1E-03 |  5.5  3.8E-02  OK|
 | E-Diss.K             | 1.00 | 2.9E-04 | 5.0E-03 |  7.6  1.1E-02  OK|
 +----------------------+------+---------+---------+------------------+

 ======================================================================
 |                        Timescale Information                       |
 ----------------------------------------------------------------------
 |       Equation       |         Type          |      Timescale      |
 +----------------------+-----------------------+---------------------+
 | U-Mom                | Auto Timescale        |     2.39347E-01     |
 | V-Mom                | Auto Timescale        |     2.39347E-01     |
 | W-Mom                | Auto Timescale        |     2.39347E-01     |
 +----------------------+-----------------------+---------------------+
 | H-Energy             | Auto Timescale        |     2.39347E-01     |
 +----------------------+-----------------------+---------------------+
 | K-TurbKE             | Auto Timescale        |     2.39347E-01     |
 | E-Diss.K             | Auto Timescale        |     2.39347E-01     |
 +----------------------+-----------------------+---------------------+

 ======================================================================
 OUTER LOOP ITERATION =  131 (   31) CPU SECONDS = 7.721E+01 (2.099E+01)
 ----------------------------------------------------------------------
 |       Equation       | Rate | RMS Res | Max Res |  Linear Solution |
 +----------------------+------+---------+---------+------------------+
 | U-Mom                | 0.99 | 1.4E-04 | 2.8E-03 |       2.3E-02  OK|
 | V-Mom                | 1.00 | 1.5E-04 | 3.4E-03 |       2.3E-02  OK|
 | W-Mom                | 1.00 | 4.9E-05 | 1.5E-03 |       1.8E-01  ok|
 | P-Mass               | 1.00 | 3.4E-05 | 2.8E-04 | 13.8  3.9E-02  OK|
 +----------------------+------+---------+---------+------------------+
 | H-Energy             | 0.98 | 1.6E-04 | 3.3E-03 |  5.5  3.2E-02  OK|
 +----------------------+------+---------+---------+------------------+
 | K-TurbKE             | 0.99 | 2.0E-04 | 1.1E-03 |  5.5  3.7E-02  OK|
 | E-Diss.K             | 0.98 | 2.8E-04 | 4.9E-03 |  7.6  1.1E-02  OK|
 +----------------------+------+---------+---------+------------------+

 ======================================================================
 OUTER LOOP ITERATION =  132 (   32) CPU SECONDS = 7.778E+01 (2.156E+01)
 ----------------------------------------------------------------------
 |       Equation       | Rate | RMS Res | Max Res |  Linear Solution |
 +----------------------+------+---------+---------+------------------+
 | U-Mom                | 0.99 | 1.4E-04 | 2.9E-03 |       2.3E-02  OK|
 | V-Mom                | 0.99 | 1.5E-04 | 3.6E-03 |       2.4E-02  OK|
 | W-Mom                | 0.99 | 4.9E-05 | 1.6E-03 |       1.8E-01  ok|
 | P-Mass               | 0.99 | 3.3E-05 | 2.7E-04 | 13.8  3.9E-02  OK|
 +----------------------+------+---------+---------+------------------+
 | H-Energy             | 0.98 | 1.6E-04 | 3.3E-03 |  5.5  3.3E-02  OK|
 +----------------------+------+---------+---------+------------------+
 | K-TurbKE             | 1.00 | 2.0E-04 | 1.1E-03 |  5.5  3.7E-02  OK|
 | E-Diss.K             | 1.00 | 2.8E-04 | 4.9E-03 |  7.6  1.1E-02  OK|
 +----------------------+------+---------+---------+------------------+

 ======================================================================
 OUTER LOOP ITERATION =  133 (   33) CPU SECONDS = 7.835E+01 (2.212E+01)
 ----------------------------------------------------------------------
 |       Equation       | Rate | RMS Res | Max Res |  Linear Solution |
 +----------------------+------+---------+---------+------------------+
 | U-Mom                | 0.99 | 1.4E-04 | 3.0E-03 |       2.3E-02  OK|
 | V-Mom                | 1.00 | 1.5E-04 | 3.7E-03 |       2.4E-02  OK|
 | W-Mom                | 0.99 | 4.8E-05 | 1.6E-03 |       1.8E-01  ok|
 | P-Mass               | 0.99 | 3.3E-05 | 2.7E-04 | 13.8  3.9E-02  OK|
 +----------------------+------+---------+---------+------------------+
 | H-Energy             | 0.99 | 1.6E-04 | 3.2E-03 |  5.5  3.3E-02  OK|
 +----------------------+------+---------+---------+------------------+
 | K-TurbKE             | 1.00 | 2.0E-04 | 1.1E-03 |  5.5  3.7E-02  OK|
 | E-Diss.K             | 1.00 | 2.8E-04 | 4.9E-03 |  7.6  1.1E-02  OK|
 +----------------------+------+---------+---------+------------------+

 ======================================================================
 OUTER LOOP ITERATION =  134 (   34) CPU SECONDS = 7.892E+01 (2.269E+01)
 ----------------------------------------------------------------------
 |       Equation       | Rate | RMS Res | Max Res |  Linear Solution |
 +----------------------+------+---------+---------+------------------+
 | U-Mom                | 0.99 | 1.4E-04 | 3.2E-03 |       2.3E-02  OK|
 | V-Mom                | 1.00 | 1.5E-04 | 3.9E-03 |       2.4E-02  OK|
 | W-Mom                | 1.00 | 4.8E-05 | 1.7E-03 |       1.8E-01  ok|
 | P-Mass               | 0.99 | 3.3E-05 | 2.7E-04 | 13.8  3.9E-02  OK|
 +----------------------+------+---------+---------+------------------+
 | H-Energy             | 0.98 | 1.6E-04 | 3.1E-03 |  5.5  3.3E-02  OK|
 +----------------------+------+---------+---------+------------------+
 | K-TurbKE             | 1.00 | 1.9E-04 | 1.1E-03 |  5.5  3.8E-02  OK|
 | E-Diss.K             | 1.00 | 2.8E-04 | 4.9E-03 |  7.6  1.1E-02  OK|
 +----------------------+------+---------+---------+------------------+

 ======================================================================
 OUTER LOOP ITERATION =  135 (   35) CPU SECONDS = 7.947E+01 (2.324E+01)
 ----------------------------------------------------------------------
 |       Equation       | Rate | RMS Res | Max Res |  Linear Solution |
 +----------------------+------+---------+---------+------------------+
 | U-Mom                | 0.99 | 1.4E-04 | 3.3E-03 |       2.3E-02  OK|
 | V-Mom                | 1.00 | 1.5E-04 | 4.0E-03 |       2.4E-02  OK|
 | W-Mom                | 1.00 | 4.8E-05 | 1.8E-03 |       1.9E-01  ok|
 | P-Mass               | 1.00 | 3.3E-05 | 2.6E-04 | 13.8  4.0E-02  OK|
 +----------------------+------+---------+---------+------------------+
 | H-Energy             | 0.98 | 1.5E-04 | 3.1E-03 |  5.5  3.4E-02  OK|
 +----------------------+------+---------+---------+------------------+
 | K-TurbKE             | 1.00 | 1.9E-04 | 1.1E-03 |  5.5  3.8E-02  OK|
 | E-Diss.K             | 1.00 | 2.8E-04 | 4.9E-03 |  7.6  1.1E-02  OK|
 +----------------------+------+---------+---------+------------------+

 ======================================================================
 |                        Timescale Information                       |
 ----------------------------------------------------------------------
 |       Equation       |         Type          |      Timescale      |
 +----------------------+-----------------------+---------------------+
 | U-Mom                | Auto Timescale        |     2.33618E-01     |
 | V-Mom                | Auto Timescale        |     2.33618E-01     |
 | W-Mom                | Auto Timescale        |     2.33618E-01     |
 +----------------------+-----------------------+---------------------+
 | H-Energy             | Auto Timescale        |     2.33618E-01     |
 +----------------------+-----------------------+---------------------+
 | K-TurbKE             | Auto Timescale        |     2.33618E-01     |
 | E-Diss.K             | Auto Timescale        |     2.33618E-01     |
 +----------------------+-----------------------+---------------------+

 ======================================================================
 OUTER LOOP ITERATION =  136 (   36) CPU SECONDS = 8.002E+01 (2.379E+01)
 ----------------------------------------------------------------------
 |       Equation       | Rate | RMS Res | Max Res |  Linear Solution |
 +----------------------+------+---------+---------+------------------+
 | U-Mom                | 0.99 | 1.4E-04 | 3.4E-03 |       2.3E-02  OK|
 | V-Mom                | 0.99 | 1.5E-04 | 4.1E-03 |       2.3E-02  OK|
 | W-Mom                | 1.00 | 4.8E-05 | 1.8E-03 |       1.8E-01  ok|
 | P-Mass               | 1.00 | 3.3E-05 | 2.6E-04 | 13.8  3.9E-02  OK|
 +----------------------+------+---------+---------+------------------+
 | H-Energy             | 0.98 | 1.5E-04 | 2.9E-03 |  5.5  3.3E-02  OK|
 +----------------------+------+---------+---------+------------------+
 | K-TurbKE             | 0.99 | 1.9E-04 | 1.1E-03 |  5.5  3.7E-02  OK|
 | E-Diss.K             | 0.98 | 2.7E-04 | 4.8E-03 |  7.6  1.1E-02  OK|
 +----------------------+------+---------+---------+------------------+

 ======================================================================
 OUTER LOOP ITERATION =  137 (   37) CPU SECONDS = 8.059E+01 (2.436E+01)
 ----------------------------------------------------------------------
 |       Equation       | Rate | RMS Res | Max Res |  Linear Solution |
 +----------------------+------+---------+---------+------------------+
 | U-Mom                | 0.99 | 1.4E-04 | 3.4E-03 |       2.3E-02  OK|
 | V-Mom                | 0.99 | 1.5E-04 | 4.1E-03 |       2.4E-02  OK|
 | W-Mom                | 1.00 | 4.8E-05 | 1.9E-03 |       1.8E-01  ok|
 | P-Mass               | 0.99 | 3.2E-05 | 2.6E-04 | 13.8  3.9E-02  OK|
 +----------------------+------+---------+---------+------------------+
 | H-Energy             | 0.98 | 1.5E-04 | 2.9E-03 |  5.5  3.3E-02  OK|
 +----------------------+------+---------+---------+------------------+
 | K-TurbKE             | 1.00 | 1.9E-04 | 1.1E-03 |  5.5  3.7E-02  OK|
 | E-Diss.K             | 1.00 | 2.7E-04 | 4.7E-03 |  7.6  1.1E-02  OK|
 +----------------------+------+---------+---------+------------------+

 ======================================================================
 OUTER LOOP ITERATION =  138 (   38) CPU SECONDS = 8.114E+01 (2.491E+01)
 ----------------------------------------------------------------------
 |       Equation       | Rate | RMS Res | Max Res |  Linear Solution |
 +----------------------+------+---------+---------+------------------+
 | U-Mom                | 0.99 | 1.4E-04 | 3.5E-03 |       2.3E-02  OK|
 | V-Mom                | 1.00 | 1.5E-04 | 4.2E-03 |       2.4E-02  OK|
 | W-Mom                | 1.00 | 4.8E-05 | 1.9E-03 |       1.9E-01  ok|
 | P-Mass               | 0.99 | 3.2E-05 | 2.6E-04 | 13.8  3.9E-02  OK|
 +----------------------+------+---------+---------+------------------+
 | H-Energy             | 0.98 | 1.5E-04 | 2.8E-03 |  5.5  3.4E-02  OK|
 +----------------------+------+---------+---------+------------------+
 | K-TurbKE             | 1.00 | 1.9E-04 | 1.1E-03 |  5.5  3.7E-02  OK|
 | E-Diss.K             | 1.00 | 2.7E-04 | 4.7E-03 |  7.6  1.1E-02  OK|
 +----------------------+------+---------+---------+------------------+

 ======================================================================
 OUTER LOOP ITERATION =  139 (   39) CPU SECONDS = 8.171E+01 (2.548E+01)
 ----------------------------------------------------------------------
 |       Equation       | Rate | RMS Res | Max Res |  Linear Solution |
 +----------------------+------+---------+---------+------------------+
 | U-Mom                | 0.99 | 1.4E-04 | 3.5E-03 |       2.3E-02  OK|
 | V-Mom                | 1.00 | 1.5E-04 | 4.3E-03 |       2.4E-02  OK|
 | W-Mom                | 1.00 | 4.7E-05 | 1.9E-03 |       1.9E-01  ok|
 | P-Mass               | 0.99 | 3.2E-05 | 2.5E-04 | 13.8  4.0E-02  OK|
 +----------------------+------+---------+---------+------------------+
 | H-Energy             | 0.98 | 1.4E-04 | 2.6E-03 |  5.5  3.5E-02  OK|
 +----------------------+------+---------+---------+------------------+
 | K-TurbKE             | 1.00 | 1.9E-04 | 1.1E-03 |  5.5  3.7E-02  OK|
 | E-Diss.K             | 1.00 | 2.7E-04 | 4.7E-03 |  7.6  1.1E-02  OK|
 +----------------------+------+---------+---------+------------------+

 ======================================================================
 OUTER LOOP ITERATION =  140 (   40) CPU SECONDS = 8.225E+01 (2.602E+01)
 ----------------------------------------------------------------------
 |       Equation       | Rate | RMS Res | Max Res |  Linear Solution |
 +----------------------+------+---------+---------+------------------+
 | U-Mom                | 0.99 | 1.4E-04 | 3.6E-03 |       2.3E-02  OK|
 | V-Mom                | 1.00 | 1.5E-04 | 4.3E-03 |       2.4E-02  OK|
 | W-Mom                | 1.00 | 4.7E-05 | 1.9E-03 |       1.9E-01  ok|
 | P-Mass               | 1.00 | 3.2E-05 | 2.5E-04 | 13.8  4.0E-02  OK|
 +----------------------+------+---------+---------+------------------+
 | H-Energy             | 0.98 | 1.4E-04 | 2.6E-03 |  5.5  3.5E-02  OK|
 +----------------------+------+---------+---------+------------------+
 | K-TurbKE             | 1.00 | 1.9E-04 | 1.1E-03 |  5.5  3.7E-02  OK|
 | E-Diss.K             | 1.00 | 2.7E-04 | 4.7E-03 |  7.6  1.1E-02  OK|
 +----------------------+------+---------+---------+------------------+

 ======================================================================
 |                        Timescale Information                       |
 ----------------------------------------------------------------------
 |       Equation       |         Type          |      Timescale      |
 +----------------------+-----------------------+---------------------+
 | U-Mom                | Auto Timescale        |     2.28308E-01     |
 | V-Mom                | Auto Timescale        |     2.28308E-01     |
 | W-Mom                | Auto Timescale        |     2.28308E-01     |
 +----------------------+-----------------------+---------------------+
 | H-Energy             | Auto Timescale        |     2.28308E-01     |
 +----------------------+-----------------------+---------------------+
 | K-TurbKE             | Auto Timescale        |     2.28308E-01     |
 | E-Diss.K             | Auto Timescale        |     2.28308E-01     |
 +----------------------+-----------------------+---------------------+

 ======================================================================
 OUTER LOOP ITERATION =  141 (   41) CPU SECONDS = 8.282E+01 (2.659E+01)
 ----------------------------------------------------------------------
 |       Equation       | Rate | RMS Res | Max Res |  Linear Solution |
 +----------------------+------+---------+---------+------------------+
 | U-Mom                | 0.99 | 1.3E-04 | 3.6E-03 |       2.3E-02  OK|
 | V-Mom                | 0.99 | 1.5E-04 | 4.4E-03 |       2.3E-02  OK|
 | W-Mom                | 1.00 | 4.7E-05 | 1.9E-03 |       1.9E-01  ok|
 | P-Mass               | 1.00 | 3.1E-05 | 2.5E-04 | 13.8  3.9E-02  OK|
 +----------------------+------+---------+---------+------------------+
 | H-Energy             | 0.98 | 1.4E-04 | 2.5E-03 |  5.5  3.4E-02  OK|
 +----------------------+------+---------+---------+------------------+
 | K-TurbKE             | 0.99 | 1.9E-04 | 1.1E-03 |  5.5  3.7E-02  OK|
 | E-Diss.K             | 0.98 | 2.7E-04 | 4.6E-03 |  7.6  1.1E-02  OK|
 +----------------------+------+---------+---------+------------------+

 ======================================================================
 OUTER LOOP ITERATION =  142 (   42) CPU SECONDS = 8.338E+01 (2.715E+01)
 ----------------------------------------------------------------------
 |       Equation       | Rate | RMS Res | Max Res |  Linear Solution |
 +----------------------+------+---------+---------+------------------+
 | U-Mom                | 0.99 | 1.3E-04 | 3.6E-03 |       2.3E-02  OK|
 | V-Mom                | 0.99 | 1.4E-04 | 4.4E-03 |       2.3E-02  OK|
[...]
 +----------------------+------+---------+---------+------------------+
 | H-Energy             | 0.99 | 7.9E-05 | 1.5E-03 |  5.5  3.8E-02  OK|
 +----------------------+------+---------+---------+------------------+
 | K-TurbKE             | 0.99 | 1.4E-04 | 8.9E-04 |  5.5  3.5E-02  OK|
 | E-Diss.K             | 1.00 | 2.1E-04 | 3.2E-03 |  7.6  1.2E-02  OK|
 +----------------------+------+---------+---------+------------------+

 ======================================================================
 |                        Timescale Information                       |
 ----------------------------------------------------------------------
 |       Equation       |         Type          |      Timescale      |
 +----------------------+-----------------------+---------------------+
 | U-Mom                | Auto Timescale        |     1.96906E-01     |
 | V-Mom                | Auto Timescale        |     1.96906E-01     |
 | W-Mom                | Auto Timescale        |     1.96906E-01     |
 +----------------------+-----------------------+---------------------+
 | H-Energy             | Auto Timescale        |     1.96906E-01     |
 +----------------------+-----------------------+---------------------+
 | K-TurbKE             | Auto Timescale        |     1.96906E-01     |
 | E-Diss.K             | Auto Timescale        |     1.96906E-01     |
 +----------------------+-----------------------+---------------------+

 ======================================================================
 OUTER LOOP ITERATION =  181 (   81) CPU SECONDS = 1.052E+02 (4.901E+01)
 ----------------------------------------------------------------------
 |       Equation       | Rate | RMS Res | Max Res |  Linear Solution |
 +----------------------+------+---------+---------+------------------+
 | U-Mom                | 0.99 | 9.8E-05 | 3.5E-03 |       2.2E-02  OK|
 | V-Mom                | 0.99 | 1.0E-04 | 3.7E-03 |       2.3E-02  OK|
 | W-Mom                | 0.98 | 2.9E-05 | 1.4E-03 |       2.1E-01  ok|
 | P-Mass               | 0.99 | 2.2E-05 | 2.1E-04 | 13.8  4.0E-02  OK|
 +----------------------+------+---------+---------+------------------+
 | H-Energy             | 0.98 | 7.8E-05 | 1.5E-03 |  5.5  3.8E-02  OK|
 +----------------------+------+---------+---------+------------------+
 | K-TurbKE             | 0.99 | 1.4E-04 | 8.9E-04 |  5.5  3.5E-02  OK|
 | E-Diss.K             | 0.98 | 2.0E-04 | 3.1E-03 |  7.6  1.2E-02  OK|
 +----------------------+------+---------+---------+------------------+

 ======================================================================
 OUTER LOOP ITERATION =  182 (   82) CPU SECONDS = 1.058E+02 (4.958E+01)
 ----------------------------------------------------------------------
 |       Equation       | Rate | RMS Res | Max Res |  Linear Solution |
 +----------------------+------+---------+---------+------------------+
 | U-Mom                | 0.99 | 9.7E-05 | 3.4E-03 |       2.2E-02  OK|
 | V-Mom                | 0.98 | 1.0E-04 | 3.5E-03 |       2.3E-02  OK|
 | W-Mom                | 0.98 | 2.8E-05 | 1.4E-03 |       2.1E-01  ok|
 | P-Mass               | 0.99 | 2.2E-05 | 2.0E-04 | 13.8  4.0E-02  OK|
 +----------------------+------+---------+---------+------------------+
 | H-Energy             | 0.99 | 7.7E-05 | 1.5E-03 |  5.5  3.8E-02  OK|
 +----------------------+------+---------+---------+------------------+
 | K-TurbKE             | 0.99 | 1.4E-04 | 8.8E-04 |  5.5  3.5E-02  OK|
 | E-Diss.K             | 0.99 | 2.0E-04 | 3.1E-03 |  7.6  1.2E-02  OK|
 +----------------------+------+---------+---------+------------------+

 ======================================================================
 OUTER LOOP ITERATION =  183 (   83) CPU SECONDS = 1.064E+02 (5.015E+01)
 ----------------------------------------------------------------------
 |       Equation       | Rate | RMS Res | Max Res |  Linear Solution |
 +----------------------+------+---------+---------+------------------+
 | U-Mom                | 0.99 | 9.6E-05 | 3.3E-03 |       2.2E-02  OK|
 | V-Mom                | 0.99 | 1.0E-04 | 3.3E-03 |       2.3E-02  OK|
 | W-Mom                | 0.98 | 2.8E-05 | 1.3E-03 |       2.1E-01  ok|
 | P-Mass               | 0.99 | 2.2E-05 | 2.0E-04 | 13.8  4.0E-02  OK|
 +----------------------+------+---------+---------+------------------+
 | H-Energy             | 0.99 | 7.6E-05 | 1.5E-03 |  5.5  3.8E-02  OK|
 +----------------------+------+---------+---------+------------------+
 | K-TurbKE             | 0.99 | 1.4E-04 | 8.7E-04 |  5.5  3.5E-02  OK|
 | E-Diss.K             | 1.00 | 2.0E-04 | 3.1E-03 |  7.6  1.2E-02  OK|
 +----------------------+------+---------+---------+------------------+

 ======================================================================
 OUTER LOOP ITERATION =  184 (   84) CPU SECONDS = 1.069E+02 (5.072E+01)
 ----------------------------------------------------------------------
 |       Equation       | Rate | RMS Res | Max Res |  Linear Solution |
 +----------------------+------+---------+---------+------------------+
 | U-Mom                | 0.99 | 9.4E-05 | 3.2E-03 |       2.2E-02  OK|
 | V-Mom                | 0.99 | 1.0E-04 | 3.2E-03 |       2.3E-02  OK|
 | W-Mom                | 0.98 | 2.7E-05 | 1.3E-03 |       2.2E-01  ok|
 | P-Mass               | 0.99 | 2.1E-05 | 1.9E-04 | 13.8  4.0E-02  OK|
 +----------------------+------+---------+---------+------------------+
 | H-Energy             | 0.99 | 7.5E-05 | 1.4E-03 |  5.5  3.8E-02  OK|
 +----------------------+------+---------+---------+------------------+
 | K-TurbKE             | 0.99 | 1.4E-04 | 8.7E-04 |  5.5  3.5E-02  OK|
 | E-Diss.K             | 1.00 | 2.0E-04 | 3.1E-03 |  7.6  1.2E-02  OK|
 +----------------------+------+---------+---------+------------------+
                   
 CFD Solver finished: Wed Dec  5 13:41:00 2018
 CFD Solver wall clock seconds: 4.7543E+01

 ======================================================================
              Termination and Interrupt Condition Summary
 ======================================================================
    
 CFD Solver: All target criteria reached
   (Equation residuals)

 ======================================================================
              Boundary Flow and Total Source Term Summary
 ======================================================================

 +--------------------------------------------------------------------+
 |                               U-Mom                                |
 +--------------------------------------------------------------------+
 Boundary         : Default Domain Default                  2.5507E+01
 Boundary         : in1                                     6.0608E-05
 Boundary         : in2                                    -6.0453E-05
 Boundary         : out                                    -2.4707E+01
                                                           -----------
 Domain Imbalance :                                         8.0025E-01

 +--------------------------------------------------------------------+
 |                               V-Mom                                |
 +--------------------------------------------------------------------+
 Boundary         : Default Domain Default                 -3.6519E+01
 Boundary         : in1                                     5.5774E+04
 Boundary         : in2                                    -5.5740E+04
 Boundary         : out                                     2.0903E+00
                                                           -----------
 Domain Imbalance :                                        -9.1750E-01

 +--------------------------------------------------------------------+
 |                               W-Mom                                |
 +--------------------------------------------------------------------+
 Boundary         : Default Domain Default                 -1.2054E+04
 Boundary         : in1                                    -1.8796E-05
 Boundary         : in2                                    -9.1870E-06
 Boundary         : out                                     1.2086E+04
                                                           -----------
 Domain Imbalance :                                         3.2500E+01

 +--------------------------------------------------------------------+
 |                               P-Mass                               |
 +--------------------------------------------------------------------+
 Boundary         : in1                                     1.5000E+03
 Boundary         : in2                                     1.5000E+03
 Boundary         : out                                    -2.9998E+03
                                                           -----------
 Domain Imbalance :                                         1.5918E-01

 +--------------------------------------------------------------------+
 |                              H-Energy                              |
 +--------------------------------------------------------------------+
 Boundary         : in1                                     1.0569E+08
 Boundary         : in2                                    -8.2484E+07
 Boundary         : out                                    -2.3271E+07
                                                           -----------
 Domain Imbalance :                                        -6.2384E+04


 +--------------------------------------------------------------------+
 |                     Normalised Imbalance Summary                   |
 +--------------------------------------------------------------------+
 |       Equation       |      Maximum Flow     |     Imbalance (%)   |
 +--------------------------------------------------------------------+
 | U-Mom                |       5.5774E+04      |        0.0014       |
 | V-Mom                |       5.5774E+04      |       -0.0016       |
 | W-Mom                |       5.5774E+04      |        0.0583       |
 | P-Mass               |       2.9998E+03      |        0.0053       |
 +----------------------+-----------------------+---------------------+
 | H-Energy             |       1.0569E+08      |       -0.0590       |
 +----------------------+-----------------------+---------------------+

 ======================================================================
                     Wall Force and Moment Summary
 ======================================================================
                                                                          
 Notes:
 1. Pressure integrals exclude the reference pressure.  To include
    it, set the expert parameter 'include pref in forces = t'.


 +--------------------------------------------------------------------+
 |                      Pressure Force On Walls                       |
 +--------------------------------------------------------------------+
                                    X-Comp.      Y-Comp.      Z-Comp.

 Domain Group: Default Domain

 Default Domain Default          -2.3697E+01   3.5253E+01   1.2135E+04
                                  -----------  -----------  -----------
 Domain Group Totals :           -2.3697E+01   3.5253E+01   1.2135E+04


 +--------------------------------------------------------------------+
 |                       Viscous Force On Walls                       |
 +--------------------------------------------------------------------+
                                    X-Comp.      Y-Comp.      Z-Comp.

 Domain Group: Default Domain

 Default Domain Default          -1.8404E+00   1.1743E+00  -7.9872E+01
                                  -----------  -----------  -----------
 Domain Group Totals :           -1.8404E+00   1.1743E+00  -7.9872E+01


 +--------------------------------------------------------------------+
 |                      Pressure Moment On Walls                      |
 +--------------------------------------------------------------------+
                                    X-Comp.      Y-Comp.      Z-Comp.

 Domain Group: Default Domain

 Default Domain Default          -2.2665E+01   3.7876E+01  -9.4298E+04
                                  -----------  -----------  -----------
 Domain Group Totals :           -2.2665E+01   3.7876E+01  -9.4298E+04


 +--------------------------------------------------------------------+
 |                       Viscous Moment On Walls                      |
 +--------------------------------------------------------------------+
                                    X-Comp.      Y-Comp.      Z-Comp.

 Domain Group: Default Domain

 Default Domain Default          -8.4461E-01  -2.9920E+00  -5.0876E+03
                                  -----------  -----------  -----------
 Domain Group Totals :           -8.4461E-01  -2.9920E+00  -5.0876E+03


 +--------------------------------------------------------------------+
 |                   Locations of Maximum Residuals                   |
 +--------------------------------------------------------------------+
 |       Equation       |      Domain Name      |     Node Number     |
 +--------------------------------------------------------------------+
 | U-Mom                | Default Domain        |          13904      |
 | V-Mom                | Default Domain        |          13904      |
 | W-Mom                | Default Domain        |          13933      |
 | P-Mass               | Default Domain        |          13893      |
 +----------------------+-----------------------+---------------------+
 | H-Energy             | Default Domain        |          14011      |
 +----------------------+-----------------------+---------------------+
 | K-TurbKE             | Default Domain        |           1610      |
 | E-Diss.K             | Default Domain        |          14687      |
 +----------------------+-----------------------+---------------------+

 ======================================================================
 |                     False Transient Information                    |
 +--------------------------------------------------------------------+
 |       Equation       |         Type          | Elapsed Pseudo-Time |
 +--------------------------------------------------------------------+
 | U-Mom                | Auto Timescale        |     7.12820E+01     |
 | V-Mom                | Auto Timescale        |     7.12820E+01     |
 | W-Mom                | Auto Timescale        |     7.12820E+01     |
 +----------------------+-----------------------+---------------------+
 | H-Energy             | Auto Timescale        |     7.12820E+01     |
 +----------------------+-----------------------+---------------------+
 | K-TurbKE             | Auto Timescale        |     7.12820E+01     |
 | E-Diss.K             | Auto Timescale        |     7.12820E+01     |
 +----------------------+-----------------------+---------------------+

 +--------------------------------------------------------------------+
 |                     Average Scale Information                      |
 +--------------------------------------------------------------------+

 Domain Name : Default Domain
     Global Length                                         = 3.2195E+00
     Minimum Extent                                        = 4.0000E+00
     Maximum Extent                                        = 6.0000E+00
     Density                                               = 9.9700E+02
     Dynamic Viscosity                                     = 8.8990E-04
     Velocity                                              = 5.1964E+00
     Advection Time                                        = 6.1956E-01
     Reynolds Number                                       = 1.8743E+07
     Thermal Conductivity                                  = 6.0690E-01
     Specific Heat Capacity at Constant Pressure           = 4.1817E+03
     Prandtl Number                                        = 6.1316E+00
     Temperature Range                                     = 3.0033E+01

 +--------------------------------------------------------------------+
 |                     Variable Range Information                     |
 +--------------------------------------------------------------------+

 Domain Name : Default Domain
 +--------------------------------------------------------------------+
 |      Variable Name                         |    min    |    max    |
 +--------------------------------------------------------------------+
 | Density                                    |  9.97E+02 |  9.97E+02 |
 | Specific Heat Capacity at Constant Pressure|  4.18E+03 |  4.18E+03 |
 | Dynamic Viscosity                          |  8.90E-04 |  8.90E-04 |
 | Thermal Conductivity                       |  6.07E-01 |  6.07E-01 |
 | Static Entropy                             | -1.89E+02 |  2.30E+02 |
 | Velocity u                                 | -6.31E+00 |  6.30E+00 |
 | Velocity v                                 | -6.53E+00 |  6.53E+00 |
 | Velocity w                                 | -5.22E+00 |  1.75E+00 |
 | Pressure                                   | -9.21E+03 |  7.01E+04 |
 | Turbulence Kinetic Energy                  |  1.13E-04 |  4.27E+00 |
 | Turbulence Eddy Dissipation                |  3.35E-04 |  2.08E+02 |
 | Eddy Viscosity                             |  1.19E-03 |  3.17E+02 |
 | Temperature                                |  2.85E+02 |  3.15E+02 |
 | Static Enthalpy                            | -5.51E+04 |  7.05E+04 |
 +--------------------------------------------------------------------+

 +--------------------------------------------------------------------+
 |               CPU Requirements of Numerical Solution               |
 +--------------------------------------------------------------------+

 Subsystem Name                  Discretization       Linear Solution
                                (secs.   %total)     (secs.   %total) 
 ----------------------------------------------------------------------
 Momentum and Mass              1.60E+01  29.7 %     5.85E+00  10.8 %
 Heat Transfer                  5.44E+00  10.1 %     1.80E+00   3.3 %
 TurbKE and Diss.K              8.26E+00  15.3 %     4.10E+00   7.6 %
                                -------- -------     --------  ------
 Subsystem Summary              2.97E+01  55.1 %     1.17E+01  21.8 %

 File Reading                   6.70E-02    0.1 %
 Search Calculations            9.99E-04    0.0 %
 Variable Updates               5.68E+00   10.5 %
 File Writing                   2.22E-01    0.4 %
 Miscellaneous                  6.53E+00   12.1 %
                                --------
 Total                          5.40E+01

 +--------------------------------------------------------------------+
 |                   Job Information at End of Run                    |
 +--------------------------------------------------------------------+

 Host computer:  ENPC-LAB137 (PID:9540)

 Job finished:   Wed Dec  5 13:41:03 2018

 Total wall clock time: 5.395E+01 seconds
             or: (          0:         0:         0:    53.948 )
                 (       Days:     Hours:   Minutes:   Seconds )

End of solution stage.

 +--------------------------------------------------------------------+
 | The results from this run of the ANSYS CFX Solver have been        |
 | written to                                                         |
 | H:/dos/CFD/CW/CFD-Static-Mixer/StaticMixerDX_pending/dp1_CFX_Solu- |
 | tion/Fluid Flow CFX_002.res                                        |
 +--------------------------------------------------------------------+


 +--------------------------------------------------------------------+
 | For CFX runs launched from Workbench, the final locations of       |
 | directories and files generated may differ from those shown.       |
 +--------------------------------------------------------------------+


This run of the ANSYS CFX Solver has finished.
