 This run of the CFX Release 19.1 Solver started at 10:58:29 on 10 Dec
 2018 by user jc2182 on ENPC-LAB121 (intel_xeon64.sse2_winnt) using the
 command:
 
  "C:\Program Files\ANSYS Inc\v191\CFX\bin\perllib\cfx5solve.pl" -batch
    -ccl runInput.ccl -fullname "Fluid Flow CFX_003"
 
 Release 19.1
 
  Point Releases and Patches installed:
  ANSYS, Inc. Products Release 19.1
  SpaceClaim Release 19.1
  Autodyn Release 19.1
  LS-DYNA Release 19.1
  CFD-Post only Release 19.1
  CFX (includes CFD-Post) Release 19.1
  Chemkin Release 19.1
  EnSight Release 19.1
  FENSAP-ICE Release 19.1
  Fluent (includes CFD-Post) Release 19.1
  Forte Release 19.1
  Polyflow (includes CFD-Post) Release 19.1
  TurboGrid Release 19.1
  ICEM CFD Release 19.1
  Customization Files for User Programmable Features Release 19.1
  Mechanical Products Release 19.1
  Icepak (includes CFD-Post) Release 19.1
  Remote Solve Manager Standalone Services Release 19.1
  ACIS Geometry Interface Release 19.1
  Catia, Version 5 Geometry Interface Release 19.1
  NX Geometry Interface Release 19.1
  Parasolid Geometry Interface  Release 19.1
  ANSYS, Inc. License Manager Release 19.1
 
 Setting up CFX Solver run ...
 
 
 +--------------------------------------------------------------------+
 |                                                                    |
 |                    CFX Command Language for Run                    |
 |                                                                    |
 +--------------------------------------------------------------------+
 
 LIBRARY:
   CEL:
     EXPRESSIONS:
       inMassFlow = 1500 [kg s^-1]
     END
   END
   MATERIAL: Water
     Material Description = Water (liquid)
     Material Group = Water Data, Constant Property Liquids
     Option = Pure Substance
     Thermodynamic State = Liquid
     PROPERTIES:
       Option = General Material
       EQUATION OF STATE:
         Density = 997.0 [kg m^-3]
         Molar Mass = 18.02 [kg kmol^-1]
         Option = Value
       END
       SPECIFIC HEAT CAPACITY:
         Option = Value
         Specific Heat Capacity = 4181.7 [J kg^-1 K^-1]
         Specific Heat Type = Constant Pressure
       END
       REFERENCE STATE:
         Option = Specified Point
         Reference Pressure = 1 [atm]
         Reference Specific Enthalpy = 0.0 [J/kg]
         Reference Specific Entropy = 0.0 [J/kg/K]
         Reference Temperature = 25 [C]
       END
       DYNAMIC VISCOSITY:
         Dynamic Viscosity = 8.899E-4 [kg m^-1 s^-1]
         Option = Value
       END
       THERMAL CONDUCTIVITY:
         Option = Value
         Thermal Conductivity = 0.6069 [W m^-1 K^-1]
       END
       ABSORPTION COEFFICIENT:
         Absorption Coefficient = 1.0 [m^-1]
         Option = Value
       END
       SCATTERING COEFFICIENT:
         Option = Value
         Scattering Coefficient = 0.0 [m^-1]
       END
       REFRACTIVE INDEX:
         Option = Value
         Refractive Index = 1.0 [m m^-1]
       END
       THERMAL EXPANSIVITY:
         Option = Value
         Thermal Expansivity = 2.57E-04 [K^-1]
       END
     END
   END
 END
 FLOW: Flow Analysis 1
   SOLUTION UNITS:
     Angle Units = [rad]
     Length Units = [m]
     Mass Units = [kg]
     Solid Angle Units = [sr]
     Temperature Units = [K]
     Time Units = [s]
   END
   ANALYSIS TYPE:
     Option = Steady State
     EXTERNAL SOLVER COUPLING:
       Option = None
     END
   END
   DOMAIN: Default Domain
     Coord Frame = Coord 0
     Domain Type = Fluid
     Location = B17
     BOUNDARY: Default Domain Default
       Boundary Type = WALL
       Location = F12.17,F14.17,F16.17,F19.17,F20.17,F21.17
       BOUNDARY CONDITIONS:
         HEAT TRANSFER:
           Option = Adiabatic
         END
         MASS AND MOMENTUM:
           Option = No Slip Wall
         END
         WALL ROUGHNESS:
           Option = Smooth Wall
         END
       END
     END
     BOUNDARY: in1
       Boundary Type = INLET
       Location = in1
       BOUNDARY CONDITIONS:
         FLOW DIRECTION:
           Option = Normal to Boundary Condition
         END
         FLOW REGIME:
           Option = Subsonic
         END
         HEAT TRANSFER:
           Option = Static Temperature
           Static Temperature = 315 [K]
         END
         MASS AND MOMENTUM:
           Mass Flow Rate = inMassFlow
           Mass Flow Rate Area = As Specified
           Option = Mass Flow Rate
         END
         TURBULENCE:
           Option = Medium Intensity and Eddy Viscosity Ratio
         END
       END
     END
     BOUNDARY: in2
       Boundary Type = INLET
       Location = in2
       BOUNDARY CONDITIONS:
         FLOW DIRECTION:
           Option = Normal to Boundary Condition
         END
         FLOW REGIME:
           Option = Subsonic
         END
         HEAT TRANSFER:
           Option = Static Temperature
           Static Temperature = 285 [K]
         END
         MASS AND MOMENTUM:
           Mass Flow Rate = inMassFlow
           Mass Flow Rate Area = As Specified
           Option = Mass Flow Rate
         END
         TURBULENCE:
           Option = Medium Intensity and Eddy Viscosity Ratio
         END
       END
     END
     BOUNDARY: out
       Boundary Type = OUTLET
       Location = out
       BOUNDARY CONDITIONS:
         FLOW REGIME:
           Option = Subsonic
         END
         MASS AND MOMENTUM:
           Option = Static Pressure
           Relative Pressure = 0 [Pa]
         END
       END
     END
     DOMAIN MODELS:
       BUOYANCY MODEL:
         Option = Non Buoyant
       END
       DOMAIN MOTION:
         Option = Stationary
       END
       MESH DEFORMATION:
         Option = None
       END
       REFERENCE PRESSURE:
         Reference Pressure = 1 [atm]
       END
     END
     FLUID DEFINITION: Fluid 1
       Material = Water
       Option = Material Library
       MORPHOLOGY:
         Option = Continuous Fluid
       END
     END
     FLUID MODELS:
       COMBUSTION MODEL:
         Option = None
       END
       HEAT TRANSFER MODEL:
         Option = Thermal Energy
       END
       THERMAL RADIATION MODEL:
         Option = None
       END
       TURBULENCE MODEL:
         Option = k epsilon
       END
       TURBULENT WALL FUNCTIONS:
         Option = Scalable
       END
     END
   END
   OUTPUT CONTROL:
     RESULTS:
       File Compression Level = Default
       Option = Standard
     END
   END
   SOLVER CONTROL:
     Turbulence Numerics = High Resolution
     ADVECTION SCHEME:
       Option = High Resolution
     END
     CONVERGENCE CONTROL:
       Length Scale Option = Conservative
       Maximum Number of Iterations = 100
       Minimum Number of Iterations = 5
       Timescale Control = Auto Timescale
       Timescale Factor = 1.0
     END
     CONVERGENCE CRITERIA:
       Residual Target = 1.E-4
       Residual Type = RMS
     END
     DYNAMIC MODEL CONTROL:
       Global Dynamic Model Control = On
     END
   END
 END
 COMMAND FILE:
   Version = 19.1
   Results Version = 19.1
 END
 PARAMETERIZATION:
   INPUT FIELD: inMassFlow
     Expression Name = inMassFlow
     Method = Expression
   END
 END
 SIMULATION CONTROL:
   EXECUTION CONTROL:
     EXECUTABLE SELECTION:
       Double Precision = No
       Large Problem = No
     END
     INTERPOLATOR STEP CONTROL:
       Runtime Priority = Standard
       MEMORY CONTROL:
         Memory Allocation Factor = 1.0
       END
     END
     PARALLEL HOST LIBRARY:
       HOST DEFINITION: enpclab121
         Remote Host Name = ENPC-LAB121
         Host Architecture String = winnt-amd64
         Installation Root = C:\Program Files\ANSYS Inc\v%v\CFX
       END
     END
     PARTITIONER STEP CONTROL:
       Multidomain Option = Automatic
       Runtime Priority = Standard
       MEMORY CONTROL:
         Memory Allocation Factor = 1.0
       END
       PARTITION SMOOTHING:
         Maximum Partition Smoothing Sweeps = 100
         Option = Smooth
       END
       PARTITIONING TYPE:
         MeTiS Type = k-way
         Option = MeTiS
         Partition Size Rule = Automatic
       END
     END
     RUN DEFINITION:
       Run Mode = Full
       Solver Input File = Fluid Flow CFX.def
       Solver Results File = D:/CFD \
         BackUps/CFD-Static-Mixer/StaticMixerDX_pending/dp15_CFX_Solution/Flui\
         d Flow CFX_003.res
       INITIAL VALUES SPECIFICATION:
         INITIAL VALUES CONTROL:
           Use Mesh From = Solver Input File
           Continue History From = Workbench Initial Values
         END
         INITIAL VALUES: Workbench Initial Values
           Option = Results File
           File Name = Fluid Flow CFX_002.res
         END
       END
     END
     SOLVER STEP CONTROL:
       Runtime Priority = Standard
       MEMORY CONTROL:
         Memory Allocation Factor = 1.0
       END
       PARALLEL ENVIRONMENT:
         Number of Processes = 1
         Start Method = Serial
       END
     END
   END
 END
 
 
 +--------------------------------------------------------------------+
 |                                                                    |
 |                  Interpolation of Initial Values                   |
 |                                                                    |
 +--------------------------------------------------------------------+
 
 


 +--------------------------------------------------------------------+
 |                                                                    |
 |                    ANSYS(R) CFX(R) Interpolator                    |
 |                                                                    |
 | Release 19.1                                                       |
 | Build 19.1 2018-04-17T13:27:50.069000                              |
 | Tue Apr 17 15:02:11 GMTDT 2018                                     |
 |                                                                    |
 |                        Executable Attributes                       |
 |                                                                    |
 |           single-64bit-int32-archfort-optimised-std-lcomp          |
 |                                                                    |
 | (C) 1996-2018 ANSYS, Inc.                                          |
 |                                                                    |
 | All rights reserved. Unauthorized use, distribution or duplication |
 | is prohibited. This product is subject to U.S. laws governing      |
 | export and re-export. For full Legal Notice, see documentation.    |
 +--------------------------------------------------------------------+




 +--------------------------------------------------------------------+
 |                  Job Information at Start of Run                   |
 +--------------------------------------------------------------------+

 Run mode:       serial run

 Host computer:  ENPC-LAB121 (PID:10468)

 Job started:    Mon Dec 10 10:58:31 2018


 +--------------------------------------------------------------------+
 |        Memory Allocated for Run  (Actual usage may be less)        |
 +--------------------------------------------------------------------+

           | Real       | Integer    | Character | Logical  | Double
 ----------+------------+------------+-----------+----------+----------
 Mwords    |       1.61 |       1.92 |      0.20 |     0.01 |     0.08
 Mbytes    |       6.16 |       7.33 |      0.19 |     0.04 |     0.63
 ----------+------------+------------+-----------+----------+----------


 +--------------------------------------------------------------------+
 |                  Host Memory Information (Mbytes)                  |
 +--------------------------------------------------------------------+
 |          Host           |     System     |   Allocated    |   %    |
 +-------------------------+----------------+----------------+--------+
 | ENPC-LAB121             |     16220.89   |        14.35   |   0.09 |
 +-------------------------+----------------+----------------+--------+

 ======================================================================
               Interpolating Onto Domain "Default Domain"
 ======================================================================

 Total Number of Nodes in the Target Domain              =        27188
 Bounding Box Volume of the Target Mesh                  =  9.60000E+01


 Checking all source domains from the source file:
   Target mesh is different from domain "Default Domain".

 Searching for Candidate Source Domains:
   Domain "Default Domain"
     Number of Mapped Nodes                     =        26253 ( 96.6%)
     Bounding Box Overlap Volume                =  9.60000E+01 (100.0%)
   Setting Up Unmapped Nodes:
     Number of Unmapped Nodes                   =          935 (  3.4%)

 Start interpolation of variables: 
   Source Domain Name                                    Mapped Nodes
   Default Domain                                        26253 ( 96.6%)

 +--------------------------------------------------------------------+
 |                     Variable Range Information                     |
 +--------------------------------------------------------------------+
 +--------------------------------------------------------------------+
 |      Variable Name                         |    min    |    max    |
 +--------------------------------------------------------------------+
 | Thermal Conductivity                       |  6.07E-01 |  6.07E-01 |
 | Courant Number                             |  8.52E-01 |  4.11E+01 |
 | Density                                    |  9.97E+02 |  9.97E+02 |
 | Static Enthalpy                            | -5.50E+04 |  7.05E+04 |
 | Static Entropy                             | -1.89E+02 |  2.30E+02 |
 | Pressure                                   | -8.72E+03 |  6.28E+04 |
 | Specific Heat Capacity at Constant Pressure|  4.18E+03 |  4.18E+03 |
 | Specific Heat Capacity at Constant Volume  |  4.18E+03 |  4.18E+03 |
 | Turbulence Eddy Dissipation                |  2.93E-04 |  3.91E+01 |
 | Turbulence Eddy Frequency                  |  6.15E+00 |  1.60E+03 |
 | Temperature                                |  2.85E+02 |  3.15E+02 |
 | Turbulence Kinetic Energy                  |  1.02E-04 |  4.24E+00 |
 | Velocity                                   |  1.46E-01 |  6.29E+00 |
 | Dynamic Viscosity                          |  8.90E-04 |  8.90E-04 |
 | Eddy Viscosity                             |  1.31E-03 |  3.20E+02 |
 +--------------------------------------------------------------------+

 +--------------------------------------------------------------------+
 |                 CPU Requirements of Interpolation                  |
 +--------------------------------------------------------------------+

 Interpolation Step              Time    Percentage
                                (secs.   %total)
 ----------------------------------------------------------------------
 Tree Setup                     3.39E-01    8.7 %
 Interpolation                  1.16E+00   29.6 %
 Unmatched Nodes                5.70E-02    1.5 %
 Miscellaneous                  2.36E+00   60.3 %
                                --------
 Total                          3.91E+00

 +--------------------------------------------------------------------+
 |                   Job Information at End of Run                    |
 +--------------------------------------------------------------------+

 Host computer:  ENPC-LAB121 (PID:10468)

 Job finished:   Mon Dec 10 10:58:35 2018

 Total wall clock time: 3.905E+00 seconds
             or: (          0:         0:         0:     3.905 )
                 (       Days:     Hours:   Minutes:   Seconds )

 
 +--------------------------------------------------------------------+
 |                                                                    |
 |                               Solver                               |
 |                                                                    |
 +--------------------------------------------------------------------+
 



 +--------------------------------------------------------------------+
 |                                                                    |
 |                       ANSYS(R) CFX(R) Solver                       |
 |                                                                    |
 | Release 19.1                                                       |
 | Build 19.1 2018-04-17T13:27:50.069000                              |
 | Tue Apr 17 15:02:11 GMTDT 2018                                     |
 |                                                                    |
 |                        Executable Attributes                       |
 |                                                                    |
 |           single-64bit-int32-archfort-optimised-std-lcomp          |
 |                                                                    |
 | (C) 1996-2018 ANSYS, Inc.                                          |
 |                                                                    |
 | All rights reserved. Unauthorized use, distribution or duplication |
 | is prohibited. This product is subject to U.S. laws governing      |
 | export and re-export. For full Legal Notice, see documentation.    |
 +--------------------------------------------------------------------+




 +--------------------------------------------------------------------+
 |                  Job Information at Start of Run                   |
 +--------------------------------------------------------------------+

 Run mode:       serial run

 Host computer:  ENPC-LAB121 (PID:6676)

 Job started:    Mon Dec 10 10:58:40 2018

 +--------------------------------------------------------------------+
 |                        License Information                         |
 +--------------------------------------------------------------------+
 
 License Cap:    ANSYS CFX Solver (Max 128K Nodes)
 License ID:     VIGO_campus_bath_ac_uk-SYSTEM-1456-2431321


 +--------------------------------------------------------------------+
 |        Memory Allocated for Run  (Actual usage may be less)        |
 +--------------------------------------------------------------------+

           | Real       | Integer    | Character | Logical  | Double
 ----------+------------+------------+-----------+----------+----------
 Mwords    |      17.36 |       4.78 |      7.26 |     0.12 |     0.89
 Mbytes    |      66.23 |      18.23 |      6.93 |     0.46 |     6.76
 ----------+------------+------------+-----------+----------+----------


 +--------------------------------------------------------------------+
 |                  Host Memory Information (Mbytes)                  |
 +--------------------------------------------------------------------+
 |          Host           |     System     |   Allocated    |   %    |
 +-------------------------+----------------+----------------+--------+
 | ENPC-LAB121             |     16220.89   |        98.61   |   0.61 |
 +-------------------------+----------------+----------------+--------+


 +--------------------------------------------------------------------+
 |                     ****** Notice ******                           |
 | The Wall Heat Transfer Coefficient written to the results file for |
 | any turbulent phase with heat transfer is based on the turbulent   |
 | wall function coefficient. It is consistent with the Wall Heat Flux|
 | the wall temperature, and the Wall Adjacent Temperature            |
 | (near-wall temperature).  If you would like it to be based on a    |
 | user-specified bulk temperature instead, please set the expert     |
 | parameter "tbulk for htc = <value>".                               |
 +--------------------------------------------------------------------+

 +--------------------------------------------------------------------+
 |                      Topology Simplification                       |
 +--------------------------------------------------------------------+

 +--------------------------------------------------------------------+
 |                       ****** Warning ******                        |
 |                                                                    |
 | Topology simplification is activated with the following            |
 | restrictions:                                                      |
 |                                                                    |
 | - Mesh regions referenced only within User Fortran and NOT         |
 |   in the command file will cause the solver to stop.               |
 | - The solver will stop during any "Edit Run in Progress" step      |
 |   if new 2D regions are referenced.                                |
 +--------------------------------------------------------------------+

 +--------------------------------------------------------------------+
 |                          Mesh Statistics                           |
 +--------------------------------------------------------------------+
 | Domain Name          | Orthog. Angle | Exp. Factor  | Aspect Ratio |
 +----------------------+---------------+--------------+--------------+
 |                      | Minimum [deg] |   Maximum    |    Maximum   |
 +----------------------+---------------+--------------+--------------+
 | Default Domain       |       30.6 ok |        12 ok |        28 OK |
 +----------------------+---------------+--------------+--------------+
 |                      |  %!  %ok  %OK | %!  %ok  %OK | %!  %ok  %OK |
 +----------------------+---------------+--------------+--------------+
 | Default Domain       |   0    1   99 |  0   <1  100 |  0    0  100 |
 +----------------------+---------------+--------------+--------------+

 Domain Name : Default Domain

     Total Number of Nodes                                =       27188

     Total Number of Elements                             =       97501
         Total Number of Tetrahedrons                     =       70901
         Total Number of Prisms                           =       26600

     Total Number of Faces                                =        7198

 +--------------------------------------------------------------------+
 |      Initial Conditions Supplied by Fields in the Input Files      |
 +--------------------------------------------------------------------+

 Domain Name : Default Domain
     Courant Number
     Eddy Viscosity
     Pressure
     Specific Heat Capacity at Constant Pressure
     Static Enthalpy
     Static Entropy
     Temperature
     Turbulence Eddy Dissipation
     Turbulence Eddy Frequency
     Turbulence Kinetic Energy
     Velocity

 +--------------------------------------------------------------------+
 |                     Average Scale Information                      |
 +--------------------------------------------------------------------+

 Domain Name : Default Domain
     Global Length                                         = 3.1998E+00
     Minimum Extent                                        = 4.0000E+00
     Maximum Extent                                        = 6.0000E+00
     Density                                               = 9.9700E+02
     Dynamic Viscosity                                     = 8.8990E-04
     Velocity                                              = 4.9319E+00
     Advection Time                                        = 6.4880E-01
     Reynolds Number                                       = 1.7681E+07
     Thermal Conductivity                                  = 6.0690E-01
     Specific Heat Capacity at Constant Pressure           = 4.1817E+03
     Prandtl Number                                        = 6.1316E+00
     Temperature Range                                     = 3.0017E+01

 +--------------------------------------------------------------------+
 |                Checking for Isolated Fluid Regions                 |
 +--------------------------------------------------------------------+
 
 No isolated fluid regions were found.

 +--------------------------------------------------------------------+
 |              The Equations Solved in This Calculation              |
 +--------------------------------------------------------------------+

 Subsystem : Momentum and Mass

   U-Mom
   V-Mom
   W-Mom
   P-Mass

 Subsystem : Heat Transfer

   H-Energy

 Subsystem : TurbKE and Diss.K

   K-TurbKE
   E-Diss.K
                   
 CFD Solver started: Mon Dec 10 10:58:43 2018


 +--------------------------------------------------------------------+
 |                       Convergence History                          |
 +--------------------------------------------------------------------+

 ======================================================================
 |                        Timescale Information                       |
 ----------------------------------------------------------------------
 |       Equation       |         Type          |      Timescale      |
 +----------------------+-----------------------+---------------------+
 | U-Mom                | Auto Timescale        |     2.01169E-01     |
 | V-Mom                | Auto Timescale        |     2.01169E-01     |
 | W-Mom                | Auto Timescale        |     2.01169E-01     |
 +----------------------+-----------------------+---------------------+
 | H-Energy             | Auto Timescale        |     2.01169E-01     |
 +----------------------+-----------------------+---------------------+
 | K-TurbKE             | Auto Timescale        |     2.01169E-01     |
 | E-Diss.K             | Auto Timescale        |     2.01169E-01     |
 +----------------------+-----------------------+---------------------+

 ======================================================================
 OUTER LOOP ITERATION =  163 (    1) CPU SECONDS = 1.953E+02 (2.973E+00)
 ----------------------------------------------------------------------
 |       Equation       | Rate | RMS Res | Max Res |  Linear Solution |
 +----------------------+------+---------+---------+------------------+
 | U-Mom                | 0.00 | 5.3E-03 | 2.5E-01 |       1.2E-01  ok|
 | V-Mom                | 0.00 | 3.0E-03 | 1.2E-01 |       1.6E-01  ok|
 | W-Mom                | 0.00 | 1.8E-03 | 6.6E-02 |       3.5E-01  ok|
 | P-Mass               | 0.00 | 6.5E-03 | 1.9E-01 |  5.2  7.1E-02  OK|
 +----------------------+------+---------+---------+------------------+
 | H-Energy             | 0.00 | 8.2E-03 | 3.9E-01 |  5.5  3.5E-02  OK|
 +----------------------+------+---------+---------+------------------+
 | K-TurbKE             | 0.00 | 4.5E-03 | 4.6E-02 |  5.5  5.3E-02  OK|
 | E-Diss.K             | 0.00 | 4.3E-02 | 1.0E+00 |  7.0  7.0E-03  OK|
 +----------------------+------+---------+---------+------------------+

 ======================================================================
 OUTER LOOP ITERATION =  164 (    2) CPU SECONDS = 1.964E+02 (4.120E+00)
 ----------------------------------------------------------------------
 |       Equation       | Rate | RMS Res | Max Res |  Linear Solution |
 +----------------------+------+---------+---------+------------------+
 | U-Mom                | 0.73 | 3.9E-03 | 1.0E-01 |       3.6E-02  OK|
 | V-Mom                | 1.18 | 3.6E-03 | 9.7E-02 |       4.0E-02  OK|
 | W-Mom                | 2.31 | 4.1E-03 | 9.0E-02 |       2.2E-02  OK|
 | P-Mass               | 0.18 | 1.2E-03 | 3.2E-02 |  9.4  2.3E-02  OK|
 +----------------------+------+---------+---------+------------------+
 | H-Energy             | 0.21 | 1.7E-03 | 4.9E-02 |  5.4  6.6E-02  OK|
 +----------------------+------+---------+---------+------------------+
 | K-TurbKE             |44.52 | 2.0E-01 | 1.5E+00 |  5.4  1.8E-03  OK|
 | E-Diss.K             | 3.80 | 1.6E-01 | 2.4E+00 |  7.3  2.7E-05  OK|
 +----------------------+------+---------+---------+------------------+

 ======================================================================
 OUTER LOOP ITERATION =  165 (    3) CPU SECONDS = 1.974E+02 (5.082E+00)
 ----------------------------------------------------------------------
 |       Equation       | Rate | RMS Res | Max Res |  Linear Solution |
 +----------------------+------+---------+---------+------------------+
 | U-Mom                | 0.53 | 2.0E-03 | 6.9E-02 |       1.3E-01  ok|
 | V-Mom                | 0.55 | 2.0E-03 | 7.1E-02 |       1.4E-01  ok|
 | W-Mom                | 0.47 | 1.9E-03 | 4.5E-02 |       1.2E-01  ok|
 | P-Mass               | 0.53 | 6.2E-04 | 1.6E-02 |  5.2  1.0E-01  OK|
 +----------------------+------+---------+---------+------------------+
 | H-Energy             | 0.70 | 1.2E-03 | 2.9E-02 |  5.4  5.2E-02  OK|
 +----------------------+------+---------+---------+------------------+
 | K-TurbKE             | 0.15 | 3.0E-02 | 3.7E-01 |  5.4  1.6E-02  OK|
 | E-Diss.K             | 0.36 | 5.8E-02 | 1.3E+00 |  7.3  7.5E-04  OK|
 +----------------------+------+---------+---------+------------------+

 ======================================================================
 |                        Timescale Information                       |
 ----------------------------------------------------------------------
 |       Equation       |         Type          |      Timescale      |
 +----------------------+-----------------------+---------------------+
 | U-Mom                | Auto Timescale        |     2.03972E-01     |
 | V-Mom                | Auto Timescale        |     2.03972E-01     |
 | W-Mom                | Auto Timescale        |     2.03972E-01     |
 +----------------------+-----------------------+---------------------+
 | H-Energy             | Auto Timescale        |     2.03972E-01     |
 +----------------------+-----------------------+---------------------+
 | K-TurbKE             | Auto Timescale        |     2.03972E-01     |
 | E-Diss.K             | Auto Timescale        |     2.03972E-01     |
 +----------------------+-----------------------+---------------------+

 ======================================================================
 OUTER LOOP ITERATION =  166 (    4) CPU SECONDS = 1.983E+02 (6.019E+00)
 ----------------------------------------------------------------------
 |       Equation       | Rate | RMS Res | Max Res |  Linear Solution |
 +----------------------+------+---------+---------+------------------+
 | U-Mom                | 0.68 | 1.4E-03 | 4.9E-02 |       2.5E-02  OK|
 | V-Mom                | 0.72 | 1.4E-03 | 5.1E-02 |       2.8E-02  OK|
 | W-Mom                | 0.46 | 8.9E-04 | 2.4E-02 |       5.3E-02  OK|
 | P-Mass               | 0.62 | 3.9E-04 | 6.4E-03 |  9.4  2.6E-02  OK|
 +----------------------+------+---------+---------+------------------+
 | H-Energy             | 0.78 | 9.5E-04 | 3.7E-02 |  5.4  5.1E-02  OK|
 +----------------------+------+---------+---------+------------------+
 | K-TurbKE             | 0.50 | 1.5E-02 | 1.6E-01 |  5.4  2.0E-02  OK|
 | E-Diss.K             | 0.72 | 4.2E-02 | 9.6E-01 |  7.3  2.3E-03  OK|
 +----------------------+------+---------+---------+------------------+

 ======================================================================
 OUTER LOOP ITERATION =  167 (    5) CPU SECONDS = 1.993E+02 (6.994E+00)
 ----------------------------------------------------------------------
 |       Equation       | Rate | RMS Res | Max Res |  Linear Solution |
 +----------------------+------+---------+---------+------------------+
 | U-Mom                | 0.71 | 9.9E-04 | 3.1E-02 |       5.1E-02  OK|
 | V-Mom                | 0.73 | 1.0E-03 | 3.5E-02 |       5.1E-02  OK|
 | W-Mom                | 0.81 | 7.2E-04 | 1.5E-02 |       5.4E-02  OK|
 | P-Mass               | 0.73 | 2.8E-04 | 4.5E-03 |  9.4  3.9E-02  OK|
 +----------------------+------+---------+---------+------------------+
 | H-Energy             | 0.80 | 7.7E-04 | 1.1E-02 |  5.4  5.3E-02  OK|
 +----------------------+------+---------+---------+------------------+
 | K-TurbKE             | 0.59 | 8.9E-03 | 7.9E-02 |  5.4  4.2E-02  OK|
 | E-Diss.K             | 0.28 | 1.2E-02 | 3.0E-01 |  7.3  5.5E-03  OK|
 +----------------------+------+---------+---------+------------------+

 ======================================================================
 OUTER LOOP ITERATION =  168 (    6) CPU SECONDS = 2.003E+02 (7.973E+00)
 ----------------------------------------------------------------------
 |       Equation       | Rate | RMS Res | Max Res |  Linear Solution |
 +----------------------+------+---------+---------+------------------+
 | U-Mom                | 0.90 | 8.9E-04 | 1.9E-02 |       6.2E-02  OK|
 | V-Mom                | 0.91 | 9.4E-04 | 2.4E-02 |       6.3E-02  OK|
 | W-Mom                | 1.59 | 1.1E-03 | 1.8E-02 |       3.9E-02  OK|
 | P-Mass               | 0.79 | 2.2E-04 | 3.4E-03 |  9.4  3.5E-02  OK|
 +----------------------+------+---------+---------+------------------+
 | H-Energy             | 0.91 | 7.0E-04 | 1.4E-02 |  5.4  5.4E-02  OK|
 +----------------------+------+---------+---------+------------------+
 | K-TurbKE             | 0.86 | 7.6E-03 | 1.0E-01 |  5.4  5.5E-02  OK|
 | E-Diss.K             | 1.51 | 1.8E-02 | 5.7E-01 |  7.3  6.6E-03  OK|
 +----------------------+------+---------+---------+------------------+

 ======================================================================
 OUTER LOOP ITERATION =  169 (    7) CPU SECONDS = 2.013E+02 (8.999E+00)
 ----------------------------------------------------------------------
 |       Equation       | Rate | RMS Res | Max Res |  Linear Solution |
 +----------------------+------+---------+---------+------------------+
 | U-Mom                | 0.78 | 7.0E-04 | 1.1E-02 |       5.3E-02  OK|
 | V-Mom                | 0.80 | 7.5E-04 | 1.6E-02 |       5.3E-02  OK|
 | W-Mom                | 0.70 | 8.0E-04 | 1.4E-02 |       6.0E-02  OK|
 | P-Mass               | 0.77 | 1.7E-04 | 2.6E-03 |  9.4  3.8E-02  OK|
 +----------------------+------+---------+---------+------------------+
 | H-Energy             | 0.91 | 6.3E-04 | 1.7E-02 |  5.4  5.3E-02  OK|
 +----------------------+------+---------+---------+------------------+
 | K-TurbKE             | 0.43 | 3.3E-03 | 5.9E-02 |  5.4  7.0E-02  OK|
 | E-Diss.K             | 0.52 | 9.2E-03 | 1.7E-01 |  7.2  5.3E-03  OK|
 +----------------------+------+---------+---------+------------------+

 ======================================================================
 OUTER LOOP ITERATION =  170 (    8) CPU SECONDS = 2.023E+02 (9.991E+00)
 ----------------------------------------------------------------------
 |       Equation       | Rate | RMS Res | Max Res |  Linear Solution |
 +----------------------+------+---------+---------+------------------+
 | U-Mom                | 0.55 | 3.8E-04 | 6.9E-03 |       8.2E-02  OK|
 | V-Mom                | 0.57 | 4.3E-04 | 1.2E-02 |       8.1E-02  OK|
 | W-Mom                | 0.37 | 3.0E-04 | 6.2E-03 |       9.5E-02  OK|
 | P-Mass               | 0.65 | 1.1E-04 | 1.7E-03 |  9.4  5.8E-02  OK|
 +----------------------+------+---------+---------+------------------+
 | H-Energy             | 0.88 | 5.6E-04 | 1.5E-02 |  5.4  5.3E-02  OK|
 +----------------------+------+---------+---------+------------------+
 | K-TurbKE             | 0.89 | 2.9E-03 | 4.6E-02 |  5.4  8.9E-02  OK|
 | E-Diss.K             | 0.63 | 5.8E-03 | 1.3E-01 |  7.3  1.4E-02  OK|
 +----------------------+------+---------+---------+------------------+

 ======================================================================
 |                        Timescale Information                       |
 ----------------------------------------------------------------------
 |       Equation       |         Type          |      Timescale      |
 +----------------------+-----------------------+---------------------+
 | U-Mom                | Auto Timescale        |     2.03728E-01     |
 | V-Mom                | Auto Timescale        |     2.03728E-01     |
 | W-Mom                | Auto Timescale        |     2.03728E-01     |
 +----------------------+-----------------------+---------------------+
 | H-Energy             | Auto Timescale        |     2.03728E-01     |
 +----------------------+-----------------------+---------------------+
 | K-TurbKE             | Auto Timescale        |     2.03728E-01     |
 | E-Diss.K             | Auto Timescale        |     2.03728E-01     |
 +----------------------+-----------------------+---------------------+

 ======================================================================
 OUTER LOOP ITERATION =  171 (    9) CPU SECONDS = 2.033E+02 (1.097E+01)
 ----------------------------------------------------------------------
 |       Equation       | Rate | RMS Res | Max Res |  Linear Solution |
 +----------------------+------+---------+---------+------------------+
 | U-Mom                | 0.87 | 3.3E-04 | 4.8E-03 |       8.3E-02  OK|
 | V-Mom                | 0.89 | 3.8E-04 | 9.5E-03 |       8.3E-02  OK|
 | W-Mom                | 0.84 | 2.5E-04 | 5.5E-03 |       1.1E-01  ok|
 | P-Mass               | 0.90 | 9.9E-05 | 1.5E-03 |  9.4  6.5E-02  OK|
 +----------------------+------+---------+---------+------------------+
 | H-Energy             | 0.88 | 4.9E-04 | 1.2E-02 |  5.4  5.3E-02  OK|
 +----------------------+------+---------+---------+------------------+
 | K-TurbKE             | 0.56 | 1.6E-03 | 2.3E-02 |  5.4  7.9E-02  OK|
 | E-Diss.K             | 0.96 | 5.5E-03 | 1.7E-01 |  7.3  8.9E-03  OK|
 +----------------------+------+---------+---------+------------------+

 ======================================================================
 OUTER LOOP ITERATION =  172 (   10) CPU SECONDS = 2.043E+02 (1.195E+01)
 ----------------------------------------------------------------------
 |       Equation       | Rate | RMS Res | Max Res |  Linear Solution |
 +----------------------+------+---------+---------+------------------+
 | U-Mom                | 0.85 | 2.8E-04 | 5.0E-03 |       7.7E-02  OK|
 | V-Mom                | 0.87 | 3.3E-04 | 7.9E-03 |       7.7E-02  OK|
 | W-Mom                | 0.89 | 2.2E-04 | 5.4E-03 |       1.2E-01  ok|
 | P-Mass               | 0.93 | 9.3E-05 | 1.2E-03 |  9.4  6.9E-02  OK|
 +----------------------+------+---------+---------+------------------+
 | H-Energy             | 0.88 | 4.3E-04 | 9.4E-03 |  5.4  5.4E-02  OK|
 +----------------------+------+---------+---------+------------------+
 | K-TurbKE             | 0.48 | 7.8E-04 | 9.8E-03 |  5.4  7.9E-02  OK|
 | E-Diss.K             | 0.31 | 1.7E-03 | 3.3E-02 |  7.3  1.2E-02  OK|
 +----------------------+------+---------+---------+------------------+

 ======================================================================
 OUTER LOOP ITERATION =  173 (   11) CPU SECONDS = 2.052E+02 (1.292E+01)
 ----------------------------------------------------------------------
 |       Equation       | Rate | RMS Res | Max Res |  Linear Solution |
 +----------------------+------+---------+---------+------------------+
 | U-Mom                | 0.83 | 2.3E-04 | 5.3E-03 |       8.2E-02  OK|
 | V-Mom                | 0.86 | 2.9E-04 | 7.2E-03 |       8.2E-02  OK|
 | W-Mom                | 0.78 | 1.7E-04 | 5.4E-03 |       1.3E-01  ok|
 | P-Mass               | 0.78 | 7.2E-05 | 1.1E-03 |  9.4  8.4E-02  OK|
 +----------------------+------+---------+---------+------------------+
 | H-Energy             | 0.89 | 3.8E-04 | 8.9E-03 |  5.4  5.3E-02  OK|
 +----------------------+------+---------+---------+------------------+
 | K-TurbKE             | 0.65 | 5.0E-04 | 5.1E-03 |  5.4  7.3E-02  OK|
 | E-Diss.K             | 0.33 | 5.6E-04 | 1.7E-02 |  7.3  3.1E-02  OK|
 +----------------------+------+---------+---------+------------------+

 ======================================================================
 OUTER LOOP ITERATION =  174 (   12) CPU SECONDS = 2.062E+02 (1.390E+01)
 ----------------------------------------------------------------------
 |       Equation       | Rate | RMS Res | Max Res |  Linear Solution |
 +----------------------+------+---------+---------+------------------+
 | U-Mom                | 0.89 | 2.1E-04 | 5.9E-03 |       8.6E-02  OK|
 | V-Mom                | 0.90 | 2.6E-04 | 6.7E-03 |       8.7E-02  OK|
 | W-Mom                | 0.87 | 1.5E-04 | 5.3E-03 |       1.5E-01  ok|
 | P-Mass               | 0.86 | 6.2E-05 | 1.0E-03 |  9.4  9.5E-02  OK|
 +----------------------+------+---------+---------+------------------+
 | H-Energy             | 0.89 | 3.4E-04 | 7.6E-03 |  5.4  5.3E-02  OK|
 +----------------------+------+---------+---------+------------------+
 | K-TurbKE             | 0.77 | 3.9E-04 | 4.0E-03 |  5.4  6.3E-02  OK|
 | E-Diss.K             | 1.67 | 9.3E-04 | 2.9E-02 |  7.3  1.4E-02  OK|
 +----------------------+------+---------+---------+------------------+

 ======================================================================
 OUTER LOOP ITERATION =  175 (   13) CPU SECONDS = 2.072E+02 (1.487E+01)
 ----------------------------------------------------------------------
 |       Equation       | Rate | RMS Res | Max Res |  Linear Solution |
 +----------------------+------+---------+---------+------------------+
 | U-Mom                | 0.93 | 1.9E-04 | 7.2E-03 |       3.4E-02  OK|
 | V-Mom                | 0.91 | 2.3E-04 | 6.5E-03 |       3.3E-02  OK|
 | W-Mom                | 0.91 | 1.4E-04 | 5.2E-03 |       9.3E-02  OK|
 | P-Mass               | 0.91 | 5.6E-05 | 9.0E-04 | 13.5  3.8E-02  OK|
 +----------------------+------+---------+---------+------------------+
 | H-Energy             | 0.90 | 3.1E-04 | 8.0E-03 |  5.4  5.2E-02  OK|
 +----------------------+------+---------+---------+------------------+
 | K-TurbKE             | 0.89 | 3.5E-04 | 2.6E-03 |  5.4  5.9E-02  OK|
 | E-Diss.K             | 0.80 | 7.4E-04 | 2.1E-02 |  7.3  1.1E-02  OK|
 +----------------------+------+---------+---------+------------------+

 ======================================================================
 |                        Timescale Information                       |
 ----------------------------------------------------------------------
 |       Equation       |         Type          |      Timescale      |
 +----------------------+-----------------------+---------------------+
 | U-Mom                | Auto Timescale        |     1.99340E-01     |
 | V-Mom                | Auto Timescale        |     1.99340E-01     |
 | W-Mom                | Auto Timescale        |     1.99340E-01     |
 +----------------------+-----------------------+---------------------+
 | H-Energy             | Auto Timescale        |     1.99340E-01     |
 +----------------------+-----------------------+---------------------+
 | K-TurbKE             | Auto Timescale        |     1.99340E-01     |
 | E-Diss.K             | Auto Timescale        |     1.99340E-01     |
 +----------------------+-----------------------+---------------------+

 ======================================================================
 OUTER LOOP ITERATION =  176 (   14) CPU SECONDS = 2.082E+02 (1.587E+01)
 ----------------------------------------------------------------------
 |       Equation       | Rate | RMS Res | Max Res |  Linear Solution |
 +----------------------+------+---------+---------+------------------+
 | U-Mom                | 0.94 | 1.8E-04 | 8.6E-03 |       3.0E-02  OK|
 | V-Mom                | 0.91 | 2.1E-04 | 6.3E-03 |       3.0E-02  OK|
 | W-Mom                | 0.91 | 1.3E-04 | 5.2E-03 |       7.7E-02  OK|
 | P-Mass               | 0.94 | 5.3E-05 | 7.6E-04 | 13.5  3.4E-02  OK|
 +----------------------+------+---------+---------+------------------+
 | H-Energy             | 0.88 | 2.7E-04 | 5.6E-03 |  5.4  5.2E-02  OK|
 +----------------------+------+---------+---------+------------------+
 | K-TurbKE             | 0.93 | 3.2E-04 | 1.9E-03 |  5.4  5.8E-02  OK|
 | E-Diss.K             | 0.77 | 5.7E-04 | 1.6E-02 |  7.3  1.2E-02  OK|
 +----------------------+------+---------+---------+------------------+

 ======================================================================
 OUTER LOOP ITERATION =  177 (   15) CPU SECONDS = 2.092E+02 (1.688E+01)
 ----------------------------------------------------------------------
 |       Equation       | Rate | RMS Res | Max Res |  Linear Solution |
 +----------------------+------+---------+---------+------------------+
 | U-Mom                | 0.96 | 1.8E-04 | 9.5E-03 |       3.0E-02  OK|
 | V-Mom                | 0.93 | 2.0E-04 | 6.4E-03 |       3.0E-02  OK|
 | W-Mom                | 0.90 | 1.1E-04 | 4.9E-03 |       8.4E-02  OK|
 | P-Mass               | 0.87 | 4.6E-05 | 6.3E-04 | 13.5  3.7E-02  OK|
 +----------------------+------+---------+---------+------------------+
 | H-Energy             | 0.90 | 2.4E-04 | 4.8E-03 |  5.4  5.4E-02  OK|
 +----------------------+------+---------+---------+------------------+
 | K-TurbKE             | 0.98 | 3.2E-04 | 1.8E-03 |  5.4  5.9E-02  OK|
 | E-Diss.K             | 1.08 | 6.2E-04 | 1.8E-02 |  7.3  1.0E-02  OK|
 +----------------------+------+---------+---------+------------------+

 ======================================================================
 OUTER LOOP ITERATION =  178 (   16) CPU SECONDS = 2.102E+02 (1.789E+01)
 ----------------------------------------------------------------------
 |       Equation       | Rate | RMS Res | Max Res |  Linear Solution |
 +----------------------+------+---------+---------+------------------+
 | U-Mom                | 0.97 | 1.7E-04 | 9.8E-03 |       3.0E-02  OK|
 | V-Mom                | 0.94 | 1.9E-04 | 6.5E-03 |       3.0E-02  OK|
 | W-Mom                | 0.90 | 1.0E-04 | 4.6E-03 |       9.0E-02  OK|
 | P-Mass               | 0.89 | 4.1E-05 | 5.6E-04 | 13.5  3.9E-02  OK|
 +----------------------+------+---------+---------+------------------+
 | H-Energy             | 0.91 | 2.2E-04 | 4.5E-03 |  5.4  5.7E-02  OK|
 +----------------------+------+---------+---------+------------------+
 | K-TurbKE             | 0.98 | 3.1E-04 | 1.7E-03 |  5.4  6.0E-02  OK|
 | E-Diss.K             | 0.99 | 6.1E-04 | 1.7E-02 |  7.3  9.6E-03  OK|
 +----------------------+------+---------+---------+------------------+

 ======================================================================
 OUTER LOOP ITERATION =  179 (   17) CPU SECONDS = 2.112E+02 (1.890E+01)
 ----------------------------------------------------------------------
 |       Equation       | Rate | RMS Res | Max Res |  Linear Solution |
 +----------------------+------+---------+---------+------------------+
 | U-Mom                | 0.97 | 1.7E-04 | 9.7E-03 |       3.0E-02  OK|
 | V-Mom                | 0.95 | 1.8E-04 | 6.5E-03 |       3.0E-02  OK|
 | W-Mom                | 0.92 | 9.4E-05 | 4.2E-03 |       9.3E-02  OK|
 | P-Mass               | 0.90 | 3.7E-05 | 5.0E-04 | 13.5  4.0E-02  OK|
 +----------------------+------+---------+---------+------------------+
 | H-Energy             | 0.92 | 2.1E-04 | 4.2E-03 |  5.4  6.0E-02  OK|
 +----------------------+------+---------+---------+------------------+
 | K-TurbKE             | 0.97 | 3.0E-04 | 1.8E-03 |  5.4  6.1E-02  OK|
 | E-Diss.K             | 0.93 | 5.7E-04 | 1.5E-02 |  7.3  1.0E-02  OK|
 +----------------------+------+---------+---------+------------------+

 ======================================================================
 OUTER LOOP ITERATION =  180 (   18) CPU SECONDS = 2.122E+02 (1.991E+01)
 ----------------------------------------------------------------------
 |       Equation       | Rate | RMS Res | Max Res |  Linear Solution |
 +----------------------+------+---------+---------+------------------+
 | U-Mom                | 0.97 | 1.6E-04 | 9.4E-03 |       3.0E-02  OK|
 | V-Mom                | 0.96 | 1.7E-04 | 6.9E-03 |       3.1E-02  OK|
 | W-Mom                | 0.93 | 8.7E-05 | 3.9E-03 |       9.5E-02  OK|
 | P-Mass               | 0.90 | 3.3E-05 | 4.4E-04 | 13.5  4.1E-02  OK|
 +----------------------+------+---------+---------+------------------+
 | H-Energy             | 0.94 | 1.9E-04 | 3.8E-03 |  5.5  6.3E-02  OK|
 +----------------------+------+---------+---------+------------------+
 | K-TurbKE             | 0.96 | 2.9E-04 | 1.8E-03 |  5.4  6.1E-02  OK|
 | E-Diss.K             | 0.93 | 5.3E-04 | 1.4E-02 |  7.3  1.0E-02  OK|
 +----------------------+------+---------+---------+------------------+

 ======================================================================
 |                        Timescale Information                       |
 ----------------------------------------------------------------------
 |       Equation       |         Type          |      Timescale      |
 +----------------------+-----------------------+---------------------+
 | U-Mom                | Auto Timescale        |     1.94739E-01     |
 | V-Mom                | Auto Timescale        |     1.94739E-01     |
 | W-Mom                | Auto Timescale        |     1.94739E-01     |
 +----------------------+-----------------------+---------------------+
 | H-Energy             | Auto Timescale        |     1.94739E-01     |
 +----------------------+-----------------------+---------------------+
 | K-TurbKE             | Auto Timescale        |     1.94739E-01     |
 | E-Diss.K             | Auto Timescale        |     1.94739E-01     |
 +----------------------+-----------------------+---------------------+

 ======================================================================
 OUTER LOOP ITERATION =  181 (   19) CPU SECONDS = 2.132E+02 (2.090E+01)
 ----------------------------------------------------------------------
 |       Equation       | Rate | RMS Res | Max Res |  Linear Solution |
 +----------------------+------+---------+---------+------------------+
 | U-Mom                | 0.97 | 1.6E-04 | 8.9E-03 |       2.9E-02  OK|
 | V-Mom                | 0.96 | 1.6E-04 | 7.2E-03 |       3.0E-02  OK|
 | W-Mom                | 0.94 | 8.2E-05 | 4.2E-03 |       9.5E-02  OK|
 | P-Mass               | 0.91 | 3.0E-05 | 3.8E-04 | 13.5  4.1E-02  OK|
 +----------------------+------+---------+---------+------------------+
 | H-Energy             | 0.94 | 1.8E-04 | 3.4E-03 |  5.4  6.4E-02  OK|
 +----------------------+------+---------+---------+------------------+
 | K-TurbKE             | 0.95 | 2.7E-04 | 1.7E-03 |  5.4  5.9E-02  OK|
 | E-Diss.K             | 0.89 | 4.7E-04 | 1.2E-02 |  7.3  1.1E-02  OK|
 +----------------------+------+---------+---------+------------------+

 ======================================================================
 OUTER LOOP ITERATION =  182 (   20) CPU SECONDS = 2.142E+02 (2.191E+01)
 ----------------------------------------------------------------------
 |       Equation       | Rate | RMS Res | Max Res |  Linear Solution |
 +----------------------+------+---------+---------+------------------+
 | U-Mom                | 0.96 | 1.5E-04 | 8.3E-03 |       2.9E-02  OK|
 | V-Mom                | 0.96 | 1.6E-04 | 6.9E-03 |       3.0E-02  OK|
 | W-Mom                | 0.95 | 7.8E-05 | 4.4E-03 |       9.6E-02  OK|
 | P-Mass               | 0.91 | 2.7E-05 | 3.6E-04 | 13.5  4.2E-02  OK|
 +----------------------+------+---------+---------+------------------+
 | H-Energy             | 0.96 | 1.7E-04 | 3.0E-03 |  5.4  6.7E-02  OK|
 +----------------------+------+---------+---------+------------------+
 | K-TurbKE             | 0.95 | 2.6E-04 | 1.5E-03 |  5.4  5.8E-02  OK|
 | E-Diss.K             | 0.89 | 4.2E-04 | 1.1E-02 |  7.3  1.1E-02  OK|
 +----------------------+------+---------+---------+------------------+

 ======================================================================
 OUTER LOOP ITERATION =  183 (   21) CPU SECONDS = 2.152E+02 (2.292E+01)
 ----------------------------------------------------------------------
 |       Equation       | Rate | RMS Res | Max Res |  Linear Solution |
 +----------------------+------+---------+---------+------------------+
 | U-Mom                | 0.96 | 1.5E-04 | 8.1E-03 |       2.9E-02  OK|
 | V-Mom                | 0.96 | 1.5E-04 | 6.5E-03 |       3.0E-02  OK|
 | W-Mom                | 0.96 | 7.5E-05 | 4.6E-03 |       9.8E-02  OK|
 | P-Mass               | 0.92 | 2.5E-05 | 3.5E-04 | 13.5  4.4E-02  OK|
 +----------------------+------+---------+---------+------------------+
 | H-Energy             | 0.96 | 1.7E-04 | 2.7E-03 |  5.4  6.9E-02  OK|
 +----------------------+------+---------+---------+------------------+
 | K-TurbKE             | 0.95 | 2.5E-04 | 1.4E-03 |  5.4  5.7E-02  OK|
 | E-Diss.K             | 0.89 | 3.8E-04 | 9.6E-03 |  7.3  1.1E-02  OK|
 +----------------------+------+---------+---------+------------------+

 ======================================================================
 OUTER LOOP ITERATION =  184 (   22) CPU SECONDS = 2.162E+02 (2.392E+01)
 ----------------------------------------------------------------------
 |       Equation       | Rate | RMS Res | Max Res |  Linear Solution |
 +----------------------+------+---------+---------+------------------+
 | U-Mom                | 0.95 | 1.4E-04 | 7.6E-03 |       2.9E-02  OK|
 | V-Mom                | 0.97 | 1.5E-04 | 6.6E-03 |       3.0E-02  OK|
 | W-Mom                | 0.96 | 7.2E-05 | 4.4E-03 |       9.9E-02  OK|
 | P-Mass               | 0.93 | 2.3E-05 | 3.4E-04 | 13.5  4.5E-02  OK|
 +----------------------+------+---------+---------+------------------+
 | H-Energy             | 0.95 | 1.6E-04 | 2.4E-03 |  5.4  7.0E-02  OK|
 +----------------------+------+---------+---------+------------------+
 | K-TurbKE             | 0.95 | 2.3E-04 | 1.3E-03 |  5.4  5.6E-02  OK|
 | E-Diss.K             | 0.90 | 3.4E-04 | 8.5E-03 |  7.3  1.2E-02  OK|
 +----------------------+------+---------+---------+------------------+

 ======================================================================
 OUTER LOOP ITERATION =  185 (   23) CPU SECONDS = 2.172E+02 (2.493E+01)
 ----------------------------------------------------------------------
 |       Equation       | Rate | RMS Res | Max Res |  Linear Solution |
 +----------------------+------+---------+---------+------------------+
 | U-Mom                | 0.96 | 1.3E-04 | 7.1E-03 |       2.9E-02  OK|
 | V-Mom                | 0.97 | 1.4E-04 | 7.1E-03 |       3.0E-02  OK|
 | W-Mom                | 0.96 | 6.9E-05 | 4.1E-03 |       1.0E-01  ok|
 | P-Mass               | 0.94 | 2.2E-05 | 3.2E-04 | 13.5  4.5E-02  OK|
 +----------------------+------+---------+---------+------------------+
 | H-Energy             | 0.95 | 1.5E-04 | 2.5E-03 |  5.4  7.0E-02  OK|
 +----------------------+------+---------+---------+------------------+
 | K-TurbKE             | 0.94 | 2.2E-04 | 1.2E-03 |  5.4  5.6E-02  OK|
 | E-Diss.K             | 0.90 | 3.0E-04 | 7.6E-03 |  7.3  1.2E-02  OK|
 +----------------------+------+---------+---------+------------------+

 ======================================================================
 |                        Timescale Information                       |
 ----------------------------------------------------------------------
 |       Equation       |         Type          |      Timescale      |
 +----------------------+-----------------------+---------------------+
 | U-Mom                | Auto Timescale        |     1.90550E-01     |
 | V-Mom                | Auto Timescale        |     1.90550E-01     |
 | W-Mom                | Auto Timescale        |     1.90550E-01     |
 +----------------------+-----------------------+---------------------+
 | H-Energy             | Auto Timescale        |     1.90550E-01     |
 +----------------------+-----------------------+---------------------+
 | K-TurbKE             | Auto Timescale        |     1.90550E-01     |
 | E-Diss.K             | Auto Timescale        |     1.90550E-01     |
 +----------------------+-----------------------+---------------------+

 ======================================================================
 OUTER LOOP ITERATION =  186 (   24) CPU SECONDS = 2.182E+02 (2.593E+01)
 ----------------------------------------------------------------------
 |       Equation       | Rate | RMS Res | Max Res |  Linear Solution |
 +----------------------+------+---------+---------+------------------+
 | U-Mom                | 0.96 | 1.3E-04 | 6.8E-03 |       2.8E-02  OK|
 | V-Mom                | 0.97 | 1.4E-04 | 7.3E-03 |       3.0E-02  OK|
 | W-Mom                | 0.97 | 6.7E-05 | 3.9E-03 |       1.0E-01  ok|
 | P-Mass               | 0.95 | 2.1E-05 | 3.0E-04 | 13.5  4.5E-02  OK|
 +----------------------+------+---------+---------+------------------+
 | H-Energy             | 0.94 | 1.4E-04 | 2.4E-03 |  5.4  6.8E-02  OK|
 +----------------------+------+---------+---------+------------------+
 | K-TurbKE             | 0.94 | 2.1E-04 | 1.1E-03 |  5.4  5.4E-02  OK|
 | E-Diss.K             | 0.90 | 2.7E-04 | 6.7E-03 |  7.3  1.2E-02  OK|
 +----------------------+------+---------+---------+------------------+

 ======================================================================
 OUTER LOOP ITERATION =  187 (   25) CPU SECONDS = 2.192E+02 (2.693E+01)
 ----------------------------------------------------------------------
 |       Equation       | Rate | RMS Res | Max Res |  Linear Solution |
 +----------------------+------+---------+---------+------------------+
 | U-Mom                | 0.96 | 1.2E-04 | 6.6E-03 |       2.8E-02  OK|
 | V-Mom                | 0.97 | 1.3E-04 | 7.5E-03 |       3.0E-02  OK|
 | W-Mom                | 0.97 | 6.5E-05 | 3.7E-03 |       1.0E-01  ok|
 | P-Mass               | 0.95 | 2.0E-05 | 2.8E-04 | 13.5  4.6E-02  OK|
 +----------------------+------+---------+---------+------------------+
 | H-Energy             | 0.94 | 1.3E-04 | 2.3E-03 |  5.4  6.7E-02  OK|
 +----------------------+------+---------+---------+------------------+
 | K-TurbKE             | 0.94 | 1.9E-04 | 1.0E-03 |  5.4  5.4E-02  OK|
 | E-Diss.K             | 0.92 | 2.5E-04 | 6.0E-03 |  7.3  1.2E-02  OK|
 +----------------------+------+---------+---------+------------------+

 ======================================================================
 OUTER LOOP ITERATION =  188 (   26) CPU SECONDS = 2.202E+02 (2.794E+01)
 ----------------------------------------------------------------------
 |       Equation       | Rate | RMS Res | Max Res |  Linear Solution |
 +----------------------+------+---------+---------+------------------+
 | U-Mom                | 0.97 | 1.2E-04 | 6.4E-03 |       2.8E-02  OK|
 | V-Mom                | 0.97 | 1.3E-04 | 7.6E-03 |       3.0E-02  OK|
 | W-Mom                | 0.97 | 6.4E-05 | 3.6E-03 |       1.1E-01  ok|
 | P-Mass               | 0.96 | 1.9E-05 | 2.5E-04 | 13.5  4.7E-02  OK|
 +----------------------+------+---------+---------+------------------+
 | H-Energy             | 0.95 | 1.3E-04 | 2.2E-03 |  5.4  6.6E-02  OK|
 +----------------------+------+---------+---------+------------------+
 | K-TurbKE             | 0.94 | 1.8E-04 | 1.1E-03 |  5.4  5.4E-02  OK|
 | E-Diss.K             | 0.92 | 2.3E-04 | 5.5E-03 |  7.3  1.2E-02  OK|
 +----------------------+------+---------+---------+------------------+

 ======================================================================
 OUTER LOOP ITERATION =  189 (   27) CPU SECONDS = 2.213E+02 (2.895E+01)
 ----------------------------------------------------------------------
 |       Equation       | Rate | RMS Res | Max Res |  Linear Solution |
 +----------------------+------+---------+---------+------------------+
 | U-Mom                | 0.97 | 1.1E-04 | 6.2E-03 |       2.7E-02  OK|
 | V-Mom                | 0.97 | 1.3E-04 | 7.5E-03 |       3.0E-02  OK|
 | W-Mom                | 0.97 | 6.2E-05 | 3.4E-03 |       1.1E-01  ok|
 | P-Mass               | 0.97 | 1.8E-05 | 2.2E-04 | 13.5  4.7E-02  OK|
 +----------------------+------+---------+---------+------------------+
 | H-Energy             | 0.96 | 1.2E-04 | 2.0E-03 |  5.4  6.5E-02  OK|
 +----------------------+------+---------+---------+------------------+
 | K-TurbKE             | 0.94 | 1.7E-04 | 1.1E-03 |  5.4  5.4E-02  OK|
 | E-Diss.K             | 0.93 | 2.2E-04 | 5.1E-03 |  7.3  1.2E-02  OK|
 +----------------------+------+---------+---------+------------------+

 ======================================================================
 OUTER LOOP ITERATION =  190 (   28) CPU SECONDS = 2.223E+02 (2.994E+01)
 ----------------------------------------------------------------------
 |       Equation       | Rate | RMS Res | Max Res |  Linear Solution |
 +----------------------+------+---------+---------+------------------+
 | U-Mom                | 0.97 | 1.1E-04 | 6.1E-03 |       2.7E-02  OK|
 | V-Mom                | 0.97 | 1.2E-04 | 7.4E-03 |       3.0E-02  OK|
 | W-Mom                | 0.97 | 6.0E-05 | 3.2E-03 |       1.1E-01  ok|
 | P-Mass               | 0.97 | 1.8E-05 | 1.9E-04 | 13.5  4.8E-02  OK|
 +----------------------+------+---------+---------+------------------+
 | H-Energy             | 0.96 | 1.2E-04 | 1.9E-03 |  5.4  6.4E-02  OK|
 +----------------------+------+---------+---------+------------------+
 | K-TurbKE             | 0.93 | 1.6E-04 | 1.1E-03 |  5.4  5.4E-02  OK|
 | E-Diss.K             | 0.93 | 2.0E-04 | 4.8E-03 |  7.3  1.2E-02  OK|
 +----------------------+------+---------+---------+------------------+

 ======================================================================
 |                        Timescale Information                       |
 ----------------------------------------------------------------------
 |       Equation       |         Type          |      Timescale      |
 +----------------------+-----------------------+---------------------+
 | U-Mom                | Auto Timescale        |     1.86768E-01     |
 | V-Mom                | Auto Timescale        |     1.86768E-01     |
 | W-Mom                | Auto Timescale        |     1.86768E-01     |
 +----------------------+-----------------------+---------------------+
 | H-Energy             | Auto Timescale        |     1.86768E-01     |
 +----------------------+-----------------------+---------------------+
 | K-TurbKE             | Auto Timescale        |     1.86768E-01     |
 | E-Diss.K             | Auto Timescale        |     1.86768E-01     |
 +----------------------+-----------------------+---------------------+

 ======================================================================
 OUTER LOOP ITERATION =  191 (   29) CPU SECONDS = 2.232E+02 (3.094E+01)
 ----------------------------------------------------------------------
 |       Equation       | Rate | RMS Res | Max Res |  Linear Solution |
 +----------------------+------+---------+---------+------------------+
 | U-Mom                | 0.97 | 1.1E-04 | 6.0E-03 |       2.6E-02  OK|
 | V-Mom                | 0.97 | 1.2E-04 | 7.1E-03 |       2.9E-02  OK|
 | W-Mom                | 0.97 | 5.8E-05 | 2.9E-03 |       1.1E-01  ok|
 | P-Mass               | 0.97 | 1.7E-05 | 1.8E-04 | 13.5  4.7E-02  OK|
 +----------------------+------+---------+---------+------------------+
 | H-Energy             | 0.97 | 1.1E-04 | 1.6E-03 |  5.4  6.2E-02  OK|
 +----------------------+------+---------+---------+------------------+
 | K-TurbKE             | 0.93 | 1.5E-04 | 9.7E-04 |  5.4  5.4E-02  OK|
 | E-Diss.K             | 0.92 | 1.8E-04 | 4.4E-03 |  7.3  1.2E-02  OK|
 +----------------------+------+---------+---------+------------------+

 ======================================================================
 OUTER LOOP ITERATION =  192 (   30) CPU SECONDS = 2.243E+02 (3.195E+01)
 ----------------------------------------------------------------------
 |       Equation       | Rate | RMS Res | Max Res |  Linear Solution |
 +----------------------+------+---------+---------+------------------+
 | U-Mom                | 0.97 | 1.0E-04 | 5.7E-03 |       2.6E-02  OK|
 | V-Mom                | 0.97 | 1.1E-04 | 6.8E-03 |       2.9E-02  OK|
 | W-Mom                | 0.96 | 5.6E-05 | 2.2E-03 |       1.1E-01  ok|
 | P-Mass               | 0.97 | 1.7E-05 | 1.8E-04 | 13.5  4.8E-02  OK|
 +----------------------+------+---------+---------+------------------+
 | H-Energy             | 0.97 | 1.1E-04 | 1.7E-03 |  5.4  6.1E-02  OK|
 +----------------------+------+---------+---------+------------------+
 | K-TurbKE             | 0.93 | 1.4E-04 | 9.8E-04 |  5.4  5.4E-02  OK|
 | E-Diss.K             | 0.93 | 1.7E-04 | 4.1E-03 |  7.3  1.3E-02  OK|
 +----------------------+------+---------+---------+------------------+

 ======================================================================
 OUTER LOOP ITERATION =  193 (   31) CPU SECONDS = 2.253E+02 (3.297E+01)
 ----------------------------------------------------------------------
 |       Equation       | Rate | RMS Res | Max Res |  Linear Solution |
 +----------------------+------+---------+---------+------------------+
 | U-Mom                | 0.97 | 1.0E-04 | 5.3E-03 |       2.6E-02  OK|
 | V-Mom                | 0.96 | 1.1E-04 | 5.7E-03 |       2.9E-02  OK|
 | W-Mom                | 0.96 | 5.3E-05 | 1.9E-03 |       1.2E-01  ok|
 | P-Mass               | 0.98 | 1.6E-05 | 1.8E-04 | 13.5  4.8E-02  OK|
 +----------------------+------+---------+---------+------------------+
 | H-Energy             | 0.98 | 1.1E-04 | 1.7E-03 |  5.4  6.0E-02  OK|
 +----------------------+------+---------+---------+------------------+
 | K-TurbKE             | 0.93 | 1.3E-04 | 1.1E-03 |  5.4  5.4E-02  OK|
 | E-Diss.K             | 0.94 | 1.6E-04 | 3.8E-03 |  7.3  1.3E-02  OK|
 +----------------------+------+---------+---------+------------------+

 ======================================================================
 OUTER LOOP ITERATION =  194 (   32) CPU SECONDS = 2.264E+02 (3.410E+01)
 ----------------------------------------------------------------------
 |       Equation       | Rate | RMS Res | Max Res |  Linear Solution |
 +----------------------+------+---------+---------+------------------+
 | U-Mom                | 0.97 | 9.8E-05 | 4.8E-03 |       2.6E-02  OK|
 | V-Mom                | 0.95 | 1.0E-04 | 4.8E-03 |       2.9E-02  OK|
 | W-Mom                | 0.96 | 5.1E-05 | 1.7E-03 |       1.2E-01  ok|
 | P-Mass               | 0.98 | 1.6E-05 | 1.8E-04 | 13.5  4.9E-02  OK|
 +----------------------+------+---------+---------+------------------+
 | H-Energy             | 0.98 | 1.1E-04 | 1.8E-03 |  5.4  5.9E-02  OK|
 +----------------------+------+---------+---------+------------------+
 | K-TurbKE             | 0.94 | 1.2E-04 | 1.2E-03 |  5.4  5.4E-02  OK|
 | E-Diss.K             | 0.94 | 1.5E-04 | 3.6E-03 |  7.3  1.3E-02  OK|
 +----------------------+------+---------+---------+------------------+

 ======================================================================
 OUTER LOOP ITERATION =  195 (   33) CPU SECONDS = 2.275E+02 (3.517E+01)
 ----------------------------------------------------------------------
 |       Equation       | Rate | RMS Res | Max Res |  Linear Solution |
 +----------------------+------+---------+---------+------------------+
 | U-Mom                | 0.96 | 9.4E-05 | 4.5E-03 |       2.6E-02  OK|
 | V-Mom                | 0.95 | 9.8E-05 | 4.5E-03 |       2.9E-02  OK|
 | W-Mom                | 0.96 | 4.9E-05 | 1.5E-03 |       1.3E-01  ok|
 | P-Mass               | 0.99 | 1.6E-05 | 1.8E-04 | 13.5  4.9E-02  OK|
 +----------------------+------+---------+---------+------------------+
 | H-Energy             | 0.98 | 1.0E-04 | 1.8E-03 |  5.4  5.8E-02  OK|
 +----------------------+------+---------+---------+------------------+
 | K-TurbKE             | 0.94 | 1.1E-04 | 1.4E-03 |  5.4  5.4E-02  OK|
 | E-Diss.K             | 0.94 | 1.4E-04 | 3.4E-03 |  7.3  1.3E-02  OK|
 +----------------------+------+---------+---------+------------------+

 ======================================================================
 |                        Timescale Information                       |
 ----------------------------------------------------------------------
 |       Equation       |         Type          |      Timescale      |
 +----------------------+-----------------------+---------------------+
 | U-Mom                | Auto Timescale        |     1.83321E-01     |
 | V-Mom                | Auto Timescale        |     1.83321E-01     |
 | W-Mom                | Auto Timescale        |     1.83321E-01     |
 +----------------------+-----------------------+---------------------+
 | H-Energy             | Auto Timescale        |     1.83321E-01     |
 +----------------------+-----------------------+---------------------+
 | K-TurbKE             | Auto Timescale        |     1.83321E-01     |
 | E-Diss.K             | Auto Timescale        |     1.83321E-01     |
 +----------------------+-----------------------+---------------------+

 ======================================================================
 OUTER LOOP ITERATION =  196 (   34) CPU SECONDS = 2.285E+02 (3.622E+01)
 ----------------------------------------------------------------------
 |       Equation       | Rate | RMS Res | Max Res |  Linear Solution |
 +----------------------+------+---------+---------+------------------+
 | U-Mom                | 0.96 | 9.0E-05 | 4.2E-03 |       2.6E-02  OK|
 | V-Mom                | 0.96 | 9.3E-05 | 4.1E-03 |       2.8E-02  OK|
 | W-Mom                | 0.96 | 4.7E-05 | 1.4E-03 |       1.3E-01  ok|
 | P-Mass               | 0.99 | 1.6E-05 | 1.8E-04 | 13.5  4.8E-02  OK|
 +----------------------+------+---------+---------+------------------+
 | H-Energy             | 0.98 | 1.0E-04 | 1.8E-03 |  5.4  5.5E-02  OK|
 +----------------------+------+---------+---------+------------------+
 | K-TurbKE             | 0.94 | 1.1E-04 | 1.4E-03 |  5.4  5.3E-02  OK|
 | E-Diss.K             | 0.94 | 1.3E-04 | 3.2E-03 |  7.3  1.3E-02  OK|
 +----------------------+------+---------+---------+------------------+

 ======================================================================
 OUTER LOOP ITERATION =  197 (   35) CPU SECONDS = 2.296E+02 (3.726E+01)
 ----------------------------------------------------------------------
 |       Equation       | Rate | RMS Res | Max Res |  Linear Solution |
 +----------------------+------+---------+---------+------------------+
 | U-Mom                | 0.96 | 8.7E-05 | 3.9E-03 |       2.6E-02  OK|
 | V-Mom                | 0.96 | 9.0E-05 | 3.7E-03 |       2.8E-02  OK|
 | W-Mom                | 0.95 | 4.5E-05 | 1.3E-03 |       1.3E-01  ok|
 | P-Mass               | 0.98 | 1.5E-05 | 1.7E-04 | 13.5  4.8E-02  OK|
 +----------------------+------+---------+---------+------------------+
 | H-Energy             | 0.98 | 1.0E-04 | 1.8E-03 |  5.4  5.5E-02  OK|
 +----------------------+------+---------+---------+------------------+
 | K-TurbKE             | 0.94 | 1.0E-04 | 1.4E-03 |  5.4  5.3E-02  OK|
 | E-Diss.K             | 0.95 | 1.3E-04 | 3.0E-03 |  7.3  1.3E-02  OK|
 +----------------------+------+---------+---------+------------------+

 ======================================================================
 OUTER LOOP ITERATION =  198 (   36) CPU SECONDS = 2.308E+02 (3.849E+01)
 ----------------------------------------------------------------------
 |       Equation       | Rate | RMS Res | Max Res |  Linear Solution |
 +----------------------+------+---------+---------+------------------+
 | U-Mom                | 0.96 | 8.3E-05 | 3.5E-03 |       2.6E-02  OK|
 | V-Mom                | 0.96 | 8.6E-05 | 3.4E-03 |       2.8E-02  OK|
 | W-Mom                | 0.95 | 4.2E-05 | 1.4E-03 |       1.3E-01  ok|
 | P-Mass               | 0.99 | 1.5E-05 | 1.7E-04 | 13.5  4.9E-02  OK|
 +----------------------+------+---------+---------+------------------+
 | H-Energy             | 0.98 | 9.9E-05 | 1.8E-03 |  5.4  5.4E-02  OK|
 +----------------------+------+---------+---------+------------------+
 | K-TurbKE             | 0.95 | 9.6E-05 | 1.3E-03 |  5.4  5.3E-02  OK|
 | E-Diss.K             | 0.95 | 1.2E-04 | 2.9E-03 |  7.3  1.2E-02  OK|
 +----------------------+------+---------+---------+------------------+
                   
 CFD Solver finished: Mon Dec 10 10:59:20 2018
 CFD Solver wall clock seconds: 3.6821E+01

 ======================================================================
              Termination and Interrupt Condition Summary
 ======================================================================
    
 CFD Solver: All target criteria reached
   (Equation residuals)

 ======================================================================
              Boundary Flow and Total Source Term Summary
 ======================================================================

 +--------------------------------------------------------------------+
 |                               U-Mom                                |
 +--------------------------------------------------------------------+
 Boundary         : Default Domain Default                  1.3939E+00
 Boundary         : in1                                     7.5672E-05
 Boundary         : in2                                    -6.4489E-05
 Boundary         : out                                     2.0756E+00
                                                           -----------
 Domain Imbalance :                                         3.4695E+00

 +--------------------------------------------------------------------+
 |                               V-Mom                                |
 +--------------------------------------------------------------------+
 Boundary         : Default Domain Default                 -1.2511E+02
 Boundary         : in1                                     7.4178E+04
 Boundary         : in2                                    -7.4035E+04
 Boundary         : out                                    -1.5553E+01
                                                           -----------
 Domain Imbalance :                                         2.2444E+00

 +--------------------------------------------------------------------+
 |                               W-Mom                                |
 +--------------------------------------------------------------------+
 Boundary         : Default Domain Default                 -1.8329E+04
 Boundary         : in1                                    -9.4579E-06
 Boundary         : in2                                    -7.5868E-06
 Boundary         : out                                     1.8370E+04
                                                           -----------
 Domain Imbalance :                                         4.1412E+01

 +--------------------------------------------------------------------+
 |                               P-Mass                               |
 +--------------------------------------------------------------------+
 Boundary         : in1                                     1.5000E+03
 Boundary         : in2                                     1.5000E+03
 Boundary         : out                                    -2.9999E+03
                                                           -----------
 Domain Imbalance :                                         9.6680E-02

 +--------------------------------------------------------------------+
 |                              H-Energy                              |
 +--------------------------------------------------------------------+
 Boundary         : in1                                     1.0569E+08
 Boundary         : in2                                    -8.2484E+07
 Boundary         : out                                    -2.3315E+07
                                                           -----------
 Domain Imbalance :                                        -1.0672E+05


 +--------------------------------------------------------------------+
 |                     Normalised Imbalance Summary                   |
 +--------------------------------------------------------------------+
 |       Equation       |      Maximum Flow     |     Imbalance (%)   |
 +--------------------------------------------------------------------+
 | U-Mom                |       7.4178E+04      |        0.0047       |
 | V-Mom                |       7.4178E+04      |        0.0030       |
 | W-Mom                |       7.4178E+04      |        0.0558       |
 | P-Mass               |       2.9999E+03      |        0.0032       |
 +----------------------+-----------------------+---------------------+
 | H-Energy             |       1.0569E+08      |       -0.1010       |
 +----------------------+-----------------------+---------------------+

 ======================================================================
                     Wall Force and Moment Summary
 ======================================================================
                                                                          
 Notes:
 1. Pressure integrals exclude the reference pressure.  To include
    it, set the expert parameter 'include pref in forces = t'.


 +--------------------------------------------------------------------+
 |                      Pressure Force On Walls                       |
 +--------------------------------------------------------------------+
                                    X-Comp.      Y-Comp.      Z-Comp.

 Domain Group: Default Domain

 Default Domain Default          -6.5859E+00   1.1131E+02   1.8531E+04
                                  -----------  -----------  -----------
 Domain Group Totals :           -6.5859E+00   1.1131E+02   1.8531E+04


 +--------------------------------------------------------------------+
 |                       Viscous Force On Walls                       |
 +--------------------------------------------------------------------+
                                    X-Comp.      Y-Comp.      Z-Comp.

 Domain Group: Default Domain

 Default Domain Default           5.1070E+00   1.3471E+01  -2.0381E+02
                                  -----------  -----------  -----------
 Domain Group Totals :            5.1070E+00   1.3471E+01  -2.0381E+02


 +--------------------------------------------------------------------+
 |                      Pressure Moment On Walls                      |
 +--------------------------------------------------------------------+
                                    X-Comp.      Y-Comp.      Z-Comp.

 Domain Group: Default Domain

 Default Domain Default          -2.2124E+02  -7.2949E+01  -1.2383E+05
                                  -----------  -----------  -----------
 Domain Group Totals :           -2.2124E+02  -7.2949E+01  -1.2383E+05


 +--------------------------------------------------------------------+
 |                       Viscous Moment On Walls                      |
 +--------------------------------------------------------------------+
                                    X-Comp.      Y-Comp.      Z-Comp.

 Domain Group: Default Domain

 Default Domain Default          -4.1711E+00   6.7785E+00  -5.3636E+03
                                  -----------  -----------  -----------
 Domain Group Totals :           -4.1711E+00   6.7785E+00  -5.3636E+03


 +--------------------------------------------------------------------+
 |                   Locations of Maximum Residuals                   |
 +--------------------------------------------------------------------+
 |       Equation       |      Domain Name      |     Node Number     |
 +--------------------------------------------------------------------+
 | U-Mom                | Default Domain        |          19511      |
 | V-Mom                | Default Domain        |          19511      |
 | W-Mom                | Default Domain        |          24649      |
 | P-Mass               | Default Domain        |          25872      |
 +----------------------+-----------------------+---------------------+
 | H-Energy             | Default Domain        |          24955      |
 +----------------------+-----------------------+---------------------+
 | K-TurbKE             | Default Domain        |          19532      |
 | E-Diss.K             | Default Domain        |          25892      |
 +----------------------+-----------------------+---------------------+

 ======================================================================
 |                     False Transient Information                    |
 +--------------------------------------------------------------------+
 |       Equation       |         Type          | Elapsed Pseudo-Time |
 +--------------------------------------------------------------------+
 | U-Mom                | Auto Timescale        |     7.04896E+00     |
 | V-Mom                | Auto Timescale        |     7.04896E+00     |
 | W-Mom                | Auto Timescale        |     7.04896E+00     |
 +----------------------+-----------------------+---------------------+
 | H-Energy             | Auto Timescale        |     7.04896E+00     |
 +----------------------+-----------------------+---------------------+
 | K-TurbKE             | Auto Timescale        |     7.04896E+00     |
 | E-Diss.K             | Auto Timescale        |     7.04896E+00     |
 +----------------------+-----------------------+---------------------+

 +--------------------------------------------------------------------+
 |                     Average Scale Information                      |
 +--------------------------------------------------------------------+

 Domain Name : Default Domain
     Global Length                                         = 3.1998E+00
     Minimum Extent                                        = 4.0000E+00
     Maximum Extent                                        = 6.0000E+00
     Density                                               = 9.9700E+02
     Dynamic Viscosity                                     = 8.8990E-04
     Velocity                                              = 5.5050E+00
     Advection Time                                        = 5.8126E-01
     Reynolds Number                                       = 1.9735E+07
     Thermal Conductivity                                  = 6.0690E-01
     Specific Heat Capacity at Constant Pressure           = 4.1817E+03
     Prandtl Number                                        = 6.1316E+00
     Temperature Range                                     = 3.0021E+01

 +--------------------------------------------------------------------+
 |                     Variable Range Information                     |
 +--------------------------------------------------------------------+

 Domain Name : Default Domain
 +--------------------------------------------------------------------+
 |      Variable Name                         |    min    |    max    |
 +--------------------------------------------------------------------+
 | Density                                    |  9.97E+02 |  9.97E+02 |
 | Specific Heat Capacity at Constant Pressure|  4.18E+03 |  4.18E+03 |
 | Dynamic Viscosity                          |  8.90E-04 |  8.90E-04 |
 | Thermal Conductivity                       |  6.07E-01 |  6.07E-01 |
 | Static Entropy                             | -1.89E+02 |  2.30E+02 |
 | Velocity u                                 | -7.14E+00 |  7.19E+00 |
 | Velocity v                                 | -7.16E+00 |  7.18E+00 |
 | Velocity w                                 | -7.19E+00 |  1.87E+00 |
 | Pressure                                   | -1.30E+04 |  9.38E+04 |
 | Turbulence Kinetic Energy                  |  9.93E-05 |  8.05E+00 |
 | Turbulence Eddy Dissipation                |  3.01E-04 |  6.70E+02 |
 | Eddy Viscosity                             |  1.39E-03 |  3.71E+02 |
 | Temperature                                |  2.85E+02 |  3.15E+02 |
 | Static Enthalpy                            | -5.50E+04 |  7.05E+04 |
 +--------------------------------------------------------------------+

 +--------------------------------------------------------------------+
 |               CPU Requirements of Numerical Solution               |
 +--------------------------------------------------------------------+

 Subsystem Name                  Discretization       Linear Solution
                                (secs.   %total)     (secs.   %total) 
 ----------------------------------------------------------------------
 Momentum and Mass              1.29E+01  29.7 %     4.07E+00   9.4 %
 Heat Transfer                  4.27E+00   9.8 %     1.45E+00   3.3 %
 TurbKE and Diss.K              6.56E+00  15.1 %     3.13E+00   7.2 %
                                -------- -------     --------  ------
 Subsystem Summary              2.37E+01  54.7 %     8.65E+00  20.0 %

 File Reading                   2.90E-02    0.1 %
 Variable Updates               4.26E+00    9.8 %
 File Writing                   7.43E-01    1.7 %
 Miscellaneous                  5.95E+00   13.7 %
                                --------
 Total                          4.33E+01

 +--------------------------------------------------------------------+
 |                   Job Information at End of Run                    |
 +--------------------------------------------------------------------+

 Host computer:  ENPC-LAB121 (PID:6676)

 Job finished:   Mon Dec 10 10:59:24 2018

 Total wall clock time: 4.333E+01 seconds
             or: (          0:         0:         0:    43.329 )
                 (       Days:     Hours:   Minutes:   Seconds )

End of solution stage.

 +--------------------------------------------------------------------+
 | The results from this run of the ANSYS CFX Solver have been        |
 | written to D:/CFD                                                  |
 | BackUps/CFD-Static-Mixer/StaticMixerDX_pending/dp15_CFX_Solution/- |
 | Fluid Flow CFX_003.res                                             |
 +--------------------------------------------------------------------+


 +--------------------------------------------------------------------+
 | For CFX runs launched from Workbench, the final locations of       |
 | directories and files generated may differ from those shown.       |
 +--------------------------------------------------------------------+


This run of the ANSYS CFX Solver has finished.
