 This run of the CFX Release 19.1 Solver started at 13:19:27 on 10 Dec
 2018 by user jc2182 on ENPC-LAB121 (intel_xeon64.sse2_winnt) using the
 command:
 
  "C:\Program Files\ANSYS Inc\v191\CFX\bin\perllib\cfx5solve.pl" -batch
    -ccl runInput.ccl -fullname "Fluid Flow CFX_004"
 
 Release 19.1
 
  Point Releases and Patches installed:
  ANSYS, Inc. Products Release 19.1
  SpaceClaim Release 19.1
  Autodyn Release 19.1
  LS-DYNA Release 19.1
  CFD-Post only Release 19.1
  CFX (includes CFD-Post) Release 19.1
  Chemkin Release 19.1
  EnSight Release 19.1
  FENSAP-ICE Release 19.1
  Fluent (includes CFD-Post) Release 19.1
  Forte Release 19.1
  Polyflow (includes CFD-Post) Release 19.1
  TurboGrid Release 19.1
  ICEM CFD Release 19.1
  Customization Files for User Programmable Features Release 19.1
  Mechanical Products Release 19.1
  Icepak (includes CFD-Post) Release 19.1
  Remote Solve Manager Standalone Services Release 19.1
  ACIS Geometry Interface Release 19.1
  Catia, Version 5 Geometry Interface Release 19.1
  NX Geometry Interface Release 19.1
  Parasolid Geometry Interface  Release 19.1
  ANSYS, Inc. License Manager Release 19.1
 
 Setting up CFX Solver run ...
 
 
 +--------------------------------------------------------------------+
 |                                                                    |
 |                    CFX Command Language for Run                    |
 |                                                                    |
 +--------------------------------------------------------------------+
 
 LIBRARY:
   CEL:
     EXPRESSIONS:
       inMassFlow = 1500 [kg s^-1]
     END
   END
   MATERIAL: Water
     Material Description = Water (liquid)
     Material Group = Water Data, Constant Property Liquids
     Option = Pure Substance
     Thermodynamic State = Liquid
     PROPERTIES:
       Option = General Material
       EQUATION OF STATE:
         Density = 997.0 [kg m^-3]
         Molar Mass = 18.02 [kg kmol^-1]
         Option = Value
       END
       SPECIFIC HEAT CAPACITY:
         Option = Value
         Specific Heat Capacity = 4181.7 [J kg^-1 K^-1]
         Specific Heat Type = Constant Pressure
       END
       REFERENCE STATE:
         Option = Specified Point
         Reference Pressure = 1 [atm]
         Reference Specific Enthalpy = 0.0 [J/kg]
         Reference Specific Entropy = 0.0 [J/kg/K]
         Reference Temperature = 25 [C]
       END
       DYNAMIC VISCOSITY:
         Dynamic Viscosity = 8.899E-4 [kg m^-1 s^-1]
         Option = Value
       END
       THERMAL CONDUCTIVITY:
         Option = Value
         Thermal Conductivity = 0.6069 [W m^-1 K^-1]
       END
       ABSORPTION COEFFICIENT:
         Absorption Coefficient = 1.0 [m^-1]
         Option = Value
       END
       SCATTERING COEFFICIENT:
         Option = Value
         Scattering Coefficient = 0.0 [m^-1]
       END
       REFRACTIVE INDEX:
         Option = Value
         Refractive Index = 1.0 [m m^-1]
       END
       THERMAL EXPANSIVITY:
         Option = Value
         Thermal Expansivity = 2.57E-04 [K^-1]
       END
     END
   END
 END
 FLOW: Flow Analysis 1
   SOLUTION UNITS:
     Angle Units = [rad]
     Length Units = [m]
     Mass Units = [kg]
     Solid Angle Units = [sr]
     Temperature Units = [K]
     Time Units = [s]
   END
   ANALYSIS TYPE:
     Option = Steady State
     EXTERNAL SOLVER COUPLING:
       Option = None
     END
   END
   DOMAIN: Default Domain
     Coord Frame = Coord 0
     Domain Type = Fluid
     Location = B17
     BOUNDARY: Default Domain Default
       Boundary Type = WALL
       Location = F12.17,F14.17,F16.17,F19.17,F20.17,F21.17
       BOUNDARY CONDITIONS:
         HEAT TRANSFER:
           Option = Adiabatic
         END
         MASS AND MOMENTUM:
           Option = No Slip Wall
         END
         WALL ROUGHNESS:
           Option = Smooth Wall
         END
       END
     END
     BOUNDARY: in1
       Boundary Type = INLET
       Location = in1
       BOUNDARY CONDITIONS:
         FLOW DIRECTION:
           Option = Normal to Boundary Condition
         END
         FLOW REGIME:
           Option = Subsonic
         END
         HEAT TRANSFER:
           Option = Static Temperature
           Static Temperature = 315 [K]
         END
         MASS AND MOMENTUM:
           Mass Flow Rate = inMassFlow
           Mass Flow Rate Area = As Specified
           Option = Mass Flow Rate
         END
         TURBULENCE:
           Option = Medium Intensity and Eddy Viscosity Ratio
         END
       END
     END
     BOUNDARY: in2
       Boundary Type = INLET
       Location = in2
       BOUNDARY CONDITIONS:
         FLOW DIRECTION:
           Option = Normal to Boundary Condition
         END
         FLOW REGIME:
           Option = Subsonic
         END
         HEAT TRANSFER:
           Option = Static Temperature
           Static Temperature = 285 [K]
         END
         MASS AND MOMENTUM:
           Mass Flow Rate = inMassFlow
           Mass Flow Rate Area = As Specified
           Option = Mass Flow Rate
         END
         TURBULENCE:
           Option = Medium Intensity and Eddy Viscosity Ratio
         END
       END
     END
     BOUNDARY: out
       Boundary Type = OUTLET
       Location = out
       BOUNDARY CONDITIONS:
         FLOW REGIME:
           Option = Subsonic
         END
         MASS AND MOMENTUM:
           Option = Static Pressure
           Relative Pressure = 0 [Pa]
         END
       END
     END
     DOMAIN MODELS:
       BUOYANCY MODEL:
         Option = Non Buoyant
       END
       DOMAIN MOTION:
         Option = Stationary
       END
       MESH DEFORMATION:
         Option = None
       END
       REFERENCE PRESSURE:
         Reference Pressure = 1 [atm]
       END
     END
     FLUID DEFINITION: Fluid 1
       Material = Water
       Option = Material Library
       MORPHOLOGY:
         Option = Continuous Fluid
       END
     END
     FLUID MODELS:
       COMBUSTION MODEL:
         Option = None
       END
       HEAT TRANSFER MODEL:
         Option = Thermal Energy
       END
       THERMAL RADIATION MODEL:
         Option = None
       END
       TURBULENCE MODEL:
         Option = k epsilon
       END
       TURBULENT WALL FUNCTIONS:
         Option = Scalable
       END
     END
   END
   OUTPUT CONTROL:
     RESULTS:
       File Compression Level = Default
       Option = Standard
     END
   END
   SOLVER CONTROL:
     Turbulence Numerics = High Resolution
     ADVECTION SCHEME:
       Option = High Resolution
     END
     CONVERGENCE CONTROL:
       Length Scale Option = Conservative
       Maximum Number of Iterations = 100
       Minimum Number of Iterations = 5
       Timescale Control = Auto Timescale
       Timescale Factor = 1.0
     END
     CONVERGENCE CRITERIA:
       Residual Target = 1.E-4
       Residual Type = RMS
     END
     DYNAMIC MODEL CONTROL:
       Global Dynamic Model Control = On
     END
   END
 END
 COMMAND FILE:
   Version = 19.1
   Results Version = 19.1
 END
 PARAMETERIZATION:
   INPUT FIELD: inMassFlow
     Expression Name = inMassFlow
     Method = Expression
   END
 END
 SIMULATION CONTROL:
   EXECUTION CONTROL:
     EXECUTABLE SELECTION:
       Double Precision = No
       Large Problem = No
     END
     INTERPOLATOR STEP CONTROL:
       Runtime Priority = Standard
       MEMORY CONTROL:
         Memory Allocation Factor = 1.0
       END
     END
     PARALLEL HOST LIBRARY:
       HOST DEFINITION: enpclab121
         Remote Host Name = ENPC-LAB121
         Host Architecture String = winnt-amd64
         Installation Root = C:\Program Files\ANSYS Inc\v%v\CFX
       END
     END
     PARTITIONER STEP CONTROL:
       Multidomain Option = Automatic
       Runtime Priority = Standard
       MEMORY CONTROL:
         Memory Allocation Factor = 1.0
       END
       PARTITION SMOOTHING:
         Maximum Partition Smoothing Sweeps = 100
         Option = Smooth
       END
       PARTITIONING TYPE:
         MeTiS Type = k-way
         Option = MeTiS
         Partition Size Rule = Automatic
       END
     END
     RUN DEFINITION:
       Run Mode = Full
       Solver Input File = Fluid Flow CFX.def
       Solver Results File = D:/CFD \
         BackUps/CFD-Static-Mixer/StaticMixerDX_pending/dp15_CFX_Solution/Flui\
         d Flow CFX_004.res
       INITIAL VALUES SPECIFICATION:
         INITIAL VALUES CONTROL:
           Use Mesh From = Solver Input File
           Continue History From = Workbench Initial Values
         END
         INITIAL VALUES: Workbench Initial Values
           Option = Results File
           File Name = Fluid Flow CFX_003.res
         END
       END
     END
     SOLVER STEP CONTROL:
       Runtime Priority = Standard
       MEMORY CONTROL:
         Memory Allocation Factor = 1.0
       END
       PARALLEL ENVIRONMENT:
         Number of Processes = 1
         Start Method = Serial
       END
     END
   END
 END
 
 
 +--------------------------------------------------------------------+
 |                                                                    |
 |                  Interpolation of Initial Values                   |
 |                                                                    |
 +--------------------------------------------------------------------+
 
 


 +--------------------------------------------------------------------+
 |                                                                    |
 |                    ANSYS(R) CFX(R) Interpolator                    |
 |                                                                    |
 | Release 19.1                                                       |
 | Build 19.1 2018-04-17T13:27:50.069000                              |
 | Tue Apr 17 15:02:11 GMTDT 2018                                     |
 |                                                                    |
 |                        Executable Attributes                       |
 |                                                                    |
 |           single-64bit-int32-archfort-optimised-std-lcomp          |
 |                                                                    |
 | (C) 1996-2018 ANSYS, Inc.                                          |
 |                                                                    |
 | All rights reserved. Unauthorized use, distribution or duplication |
 | is prohibited. This product is subject to U.S. laws governing      |
 | export and re-export. For full Legal Notice, see documentation.    |
 +--------------------------------------------------------------------+




 +--------------------------------------------------------------------+
 |                  Job Information at Start of Run                   |
 +--------------------------------------------------------------------+

 Run mode:       serial run

 Host computer:  ENPC-LAB121 (PID:2388)

 Job started:    Mon Dec 10 13:19:29 2018


 +--------------------------------------------------------------------+
 |        Memory Allocated for Run  (Actual usage may be less)        |
 +--------------------------------------------------------------------+

           | Real       | Integer    | Character | Logical  | Double
 ----------+------------+------------+-----------+----------+----------
 Mwords    |       1.60 |       1.91 |      0.20 |     0.01 |     0.08
 Mbytes    |       6.11 |       7.29 |      0.19 |     0.04 |     0.63
 ----------+------------+------------+-----------+----------+----------


 +--------------------------------------------------------------------+
 |                  Host Memory Information (Mbytes)                  |
 +--------------------------------------------------------------------+
 |          Host           |     System     |   Allocated    |   %    |
 +-------------------------+----------------+----------------+--------+
 | ENPC-LAB121             |     16220.89   |        14.26   |   0.09 |
 +-------------------------+----------------+----------------+--------+

 ======================================================================
               Interpolating Onto Domain "Default Domain"
 ======================================================================

 Total Number of Nodes in the Target Domain              =        27417
 Bounding Box Volume of the Target Mesh                  =  9.60000E+01


 Checking all source domains from the source file:
   Target mesh is different from domain "Default Domain".

 Searching for Candidate Source Domains:
   Domain "Default Domain"
     Number of Mapped Nodes                     =        26654 ( 97.2%)
     Bounding Box Overlap Volume                =  9.60000E+01 (100.0%)
   Setting Up Unmapped Nodes:
     Number of Unmapped Nodes                   =          763 (  2.8%)

 Start interpolation of variables: 
   Source Domain Name                                    Mapped Nodes
   Default Domain                                        26654 ( 97.2%)

 +--------------------------------------------------------------------+
 |                     Variable Range Information                     |
 +--------------------------------------------------------------------+
 +--------------------------------------------------------------------+
 |      Variable Name                         |    min    |    max    |
 +--------------------------------------------------------------------+
 | Thermal Conductivity                       |  6.07E-01 |  6.07E-01 |
 | Courant Number                             |  9.56E-01 |  4.52E+01 |
 | Density                                    |  9.97E+02 |  9.97E+02 |
 | Static Enthalpy                            | -5.50E+04 |  7.05E+04 |
 | Static Entropy                             | -1.89E+02 |  2.30E+02 |
 | Pressure                                   | -1.25E+04 |  9.36E+04 |
 | Specific Heat Capacity at Constant Pressure|  4.18E+03 |  4.18E+03 |
 | Specific Heat Capacity at Constant Volume  |  4.18E+03 |  4.18E+03 |
 | Turbulence Eddy Dissipation                |  3.02E-04 |  2.18E+02 |
 | Turbulence Eddy Frequency                  |  6.89E+00 |  1.64E+03 |
 | Temperature                                |  2.85E+02 |  3.15E+02 |
 | Turbulence Kinetic Energy                  |  9.95E-05 |  8.02E+00 |
 | Velocity                                   |  1.74E-01 |  9.09E+00 |
 | Dynamic Viscosity                          |  8.90E-04 |  8.90E-04 |
 | Eddy Viscosity                             |  1.42E-03 |  3.68E+02 |
 +--------------------------------------------------------------------+

 +--------------------------------------------------------------------+
 |                 CPU Requirements of Interpolation                  |
 +--------------------------------------------------------------------+

 Interpolation Step              Time    Percentage
                                (secs.   %total)
 ----------------------------------------------------------------------
 Tree Setup                     3.22E-01    8.9 %
 Interpolation                  1.32E+00   36.2 %
 Unmatched Nodes                1.02E-01    2.8 %
 Miscellaneous                  1.89E+00   52.1 %
                                --------
 Total                          3.63E+00

 +--------------------------------------------------------------------+
 |                   Job Information at End of Run                    |
 +--------------------------------------------------------------------+

 Host computer:  ENPC-LAB121 (PID:2388)

 Job finished:   Mon Dec 10 13:19:32 2018

 Total wall clock time: 3.629E+00 seconds
             or: (          0:         0:         0:     3.629 )
                 (       Days:     Hours:   Minutes:   Seconds )

 
 +--------------------------------------------------------------------+
 |                                                                    |
 |                               Solver                               |
 |                                                                    |
 +--------------------------------------------------------------------+
 



 +--------------------------------------------------------------------+
 |                                                                    |
 |                       ANSYS(R) CFX(R) Solver                       |
 |                                                                    |
 | Release 19.1                                                       |
 | Build 19.1 2018-04-17T13:27:50.069000                              |
 | Tue Apr 17 15:02:11 GMTDT 2018                                     |
 |                                                                    |
 |                        Executable Attributes                       |
 |                                                                    |
 |           single-64bit-int32-archfort-optimised-std-lcomp          |
 |                                                                    |
 | (C) 1996-2018 ANSYS, Inc.                                          |
 |                                                                    |
 | All rights reserved. Unauthorized use, distribution or duplication |
 | is prohibited. This product is subject to U.S. laws governing      |
 | export and re-export. For full Legal Notice, see documentation.    |
 +--------------------------------------------------------------------+




 +--------------------------------------------------------------------+
 |                  Job Information at Start of Run                   |
 +--------------------------------------------------------------------+

 Run mode:       serial run

 Host computer:  ENPC-LAB121 (PID:12904)

 Job started:    Mon Dec 10 13:19:38 2018

 +--------------------------------------------------------------------+
 |                        License Information                         |
 +--------------------------------------------------------------------+
 
 License Cap:    ANSYS CFX Solver (Max 128K Nodes)
 License ID:     VIGO_campus_bath_ac_uk-SYSTEM-1456-2470489


 +--------------------------------------------------------------------+
 |        Memory Allocated for Run  (Actual usage may be less)        |
 +--------------------------------------------------------------------+

           | Real       | Integer    | Character | Logical  | Double
 ----------+------------+------------+-----------+----------+----------
 Mwords    |      17.40 |       4.80 |      7.26 |     0.12 |     0.89
 Mbytes    |      66.37 |      18.31 |      6.93 |     0.46 |     6.78
 ----------+------------+------------+-----------+----------+----------


 +--------------------------------------------------------------------+
 |                  Host Memory Information (Mbytes)                  |
 +--------------------------------------------------------------------+
 |          Host           |     System     |   Allocated    |   %    |
 +-------------------------+----------------+----------------+--------+
 | ENPC-LAB121             |     16220.89   |        98.84   |   0.61 |
 +-------------------------+----------------+----------------+--------+


 +--------------------------------------------------------------------+
 |                     ****** Notice ******                           |
 | The Wall Heat Transfer Coefficient written to the results file for |
 | any turbulent phase with heat transfer is based on the turbulent   |
 | wall function coefficient. It is consistent with the Wall Heat Flux|
 | the wall temperature, and the Wall Adjacent Temperature            |
 | (near-wall temperature).  If you would like it to be based on a    |
 | user-specified bulk temperature instead, please set the expert     |
 | parameter "tbulk for htc = <value>".                               |
 +--------------------------------------------------------------------+

 +--------------------------------------------------------------------+
 |                      Topology Simplification                       |
 +--------------------------------------------------------------------+

 +--------------------------------------------------------------------+
 |                       ****** Warning ******                        |
 |                                                                    |
 | Topology simplification is activated with the following            |
 | restrictions:                                                      |
 |                                                                    |
 | - Mesh regions referenced only within User Fortran and NOT         |
 |   in the command file will cause the solver to stop.               |
 | - The solver will stop during any "Edit Run in Progress" step      |
 |   if new 2D regions are referenced.                                |
 +--------------------------------------------------------------------+

 +--------------------------------------------------------------------+
 |                          Mesh Statistics                           |
 +--------------------------------------------------------------------+
 | Domain Name          | Orthog. Angle | Exp. Factor  | Aspect Ratio |
 +----------------------+---------------+--------------+--------------+
 |                      | Minimum [deg] |   Maximum    |    Maximum   |
 +----------------------+---------------+--------------+--------------+
 | Default Domain       |       30.3 ok |        16 ok |        28 OK |
 +----------------------+---------------+--------------+--------------+
 |                      |  %!  %ok  %OK | %!  %ok  %OK | %!  %ok  %OK |
 +----------------------+---------------+--------------+--------------+
 | Default Domain       |   0    2   98 |  0   <1  100 |  0    0  100 |
 +----------------------+---------------+--------------+--------------+

 Domain Name : Default Domain

     Total Number of Nodes                                =       27417

     Total Number of Elements                             =       97846
         Total Number of Tetrahedrons                     =       70806
         Total Number of Prisms                           =       27040

     Total Number of Faces                                =        7278

 +--------------------------------------------------------------------+
 |      Initial Conditions Supplied by Fields in the Input Files      |
 +--------------------------------------------------------------------+

 Domain Name : Default Domain
     Courant Number
     Eddy Viscosity
     Pressure
     Specific Heat Capacity at Constant Pressure
     Static Enthalpy
     Static Entropy
     Temperature
     Turbulence Eddy Dissipation
     Turbulence Eddy Frequency
     Turbulence Kinetic Energy
     Velocity

 +--------------------------------------------------------------------+
 |                     Average Scale Information                      |
 +--------------------------------------------------------------------+

 Domain Name : Default Domain
     Global Length                                         = 3.1961E+00
     Minimum Extent                                        = 4.0000E+00
     Maximum Extent                                        = 6.0000E+00
     Density                                               = 9.9700E+02
     Dynamic Viscosity                                     = 8.8990E-04
     Velocity                                              = 5.5054E+00
     Advection Time                                        = 5.8054E-01
     Reynolds Number                                       = 1.9714E+07
     Thermal Conductivity                                  = 6.0690E-01
     Specific Heat Capacity at Constant Pressure           = 4.1817E+03
     Prandtl Number                                        = 6.1316E+00
     Temperature Range                                     = 3.0016E+01

 +--------------------------------------------------------------------+
 |                Checking for Isolated Fluid Regions                 |
 +--------------------------------------------------------------------+
 
 No isolated fluid regions were found.

 +--------------------------------------------------------------------+
 |              The Equations Solved in This Calculation              |
 +--------------------------------------------------------------------+

 Subsystem : Momentum and Mass

   U-Mom
   V-Mom
   W-Mom
   P-Mass

 Subsystem : Heat Transfer

   H-Energy

 Subsystem : TurbKE and Diss.K

   K-TurbKE
   E-Diss.K
                   
 CFD Solver started: Mon Dec 10 13:19:42 2018


 +--------------------------------------------------------------------+
 |                       Convergence History                          |
 +--------------------------------------------------------------------+

 ======================================================================
 |                        Timescale Information                       |
 ----------------------------------------------------------------------
 |       Equation       |         Type          |      Timescale      |
 +----------------------+-----------------------+---------------------+
 | U-Mom                | Auto Timescale        |     1.81175E-01     |
 | V-Mom                | Auto Timescale        |     1.81175E-01     |
 | W-Mom                | Auto Timescale        |     1.81175E-01     |
 +----------------------+-----------------------+---------------------+
 | H-Energy             | Auto Timescale        |     1.81175E-01     |
 +----------------------+-----------------------+---------------------+
 | K-TurbKE             | Auto Timescale        |     1.81175E-01     |
 | E-Diss.K             | Auto Timescale        |     1.81175E-01     |
 +----------------------+-----------------------+---------------------+

 ======================================================================
 OUTER LOOP ITERATION =  199 (    1) CPU SECONDS = 2.342E+02 (3.455E+00)
 ----------------------------------------------------------------------
 |       Equation       | Rate | RMS Res | Max Res |  Linear Solution |
 +----------------------+------+---------+---------+------------------+
 | U-Mom                | 0.00 | 2.4E-03 | 5.7E-02 |       1.2E-01  ok|
 | V-Mom                | 0.00 | 2.7E-03 | 9.5E-02 |       1.1E-01  ok|
 | W-Mom                | 0.00 | 1.4E-03 | 3.8E-02 |       1.1E-01  ok|
 | P-Mass               | 0.00 | 1.5E-03 | 5.1E-02 |  5.2  9.5E-02  OK|
 +----------------------+------+---------+---------+------------------+
 | H-Energy             | 0.00 | 4.5E-03 | 8.8E-02 |  5.5  3.6E-02  OK|
 +----------------------+------+---------+---------+------------------+
 | K-TurbKE             | 0.00 | 5.0E-03 | 1.0E-01 |  5.4  4.0E-02  OK|
 | E-Diss.K             | 0.00 | 3.2E-02 | 9.8E-01 |  7.2  4.6E-03  OK|
 +----------------------+------+---------+---------+------------------+

 ======================================================================
 OUTER LOOP ITERATION =  200 (    2) CPU SECONDS = 2.354E+02 (4.590E+00)
 ----------------------------------------------------------------------
 |       Equation       | Rate | RMS Res | Max Res |  Linear Solution |
 +----------------------+------+---------+---------+------------------+
 | U-Mom                | 0.78 | 1.9E-03 | 4.2E-02 |       6.5E-02  OK|
 | V-Mom                | 0.69 | 1.8E-03 | 4.0E-02 |       6.1E-02  OK|
 | W-Mom                | 1.20 | 1.6E-03 | 2.8E-02 |       5.8E-02  OK|
 | P-Mass               | 0.24 | 3.6E-04 | 6.4E-03 |  9.4  6.1E-02  OK|
 +----------------------+------+---------+---------+------------------+
 | H-Energy             | 0.30 | 1.3E-03 | 5.2E-02 |  5.4  6.6E-02  OK|
 +----------------------+------+---------+---------+------------------+
 | K-TurbKE             |11.81 | 6.0E-02 | 6.5E-01 |  5.4  5.2E-03  OK|
 | E-Diss.K             | 3.02 | 9.5E-02 | 2.4E+00 |  7.3  1.6E-04  OK|
 +----------------------+------+---------+---------+------------------+

 ======================================================================
 |                        Timescale Information                       |
 ----------------------------------------------------------------------
 |       Equation       |         Type          |      Timescale      |
 +----------------------+-----------------------+---------------------+
 | U-Mom                | Auto Timescale        |     1.85969E-01     |
 | V-Mom                | Auto Timescale        |     1.85969E-01     |
 | W-Mom                | Auto Timescale        |     1.85969E-01     |
 +----------------------+-----------------------+---------------------+
 | H-Energy             | Auto Timescale        |     1.85969E-01     |
 +----------------------+-----------------------+---------------------+
 | K-TurbKE             | Auto Timescale        |     1.85969E-01     |
 | E-Diss.K             | Auto Timescale        |     1.85969E-01     |
 +----------------------+-----------------------+---------------------+

 ======================================================================
 OUTER LOOP ITERATION =  201 (    3) CPU SECONDS = 2.364E+02 (5.604E+00)
 ----------------------------------------------------------------------
 |       Equation       | Rate | RMS Res | Max Res |  Linear Solution |
 +----------------------+------+---------+---------+------------------+
 | U-Mom                | 0.58 | 1.1E-03 | 2.5E-02 |       5.9E-02  OK|
 | V-Mom                | 0.53 | 9.8E-04 | 2.0E-02 |       6.0E-02  OK|
 | W-Mom                | 0.52 | 8.3E-04 | 1.5E-02 |       6.9E-02  OK|
 | P-Mass               | 0.91 | 3.2E-04 | 6.2E-03 |  9.4  3.8E-02  OK|
 +----------------------+------+---------+---------+------------------+
 | H-Energy             | 0.74 | 1.0E-03 | 4.4E-02 |  5.4  4.2E-02  OK|
 +----------------------+------+---------+---------+------------------+
 | K-TurbKE             | 0.18 | 1.1E-02 | 1.7E-01 |  5.4  3.4E-02  OK|
 | E-Diss.K             | 0.33 | 3.2E-02 | 9.0E-01 |  7.3  2.0E-03  OK|
 +----------------------+------+---------+---------+------------------+

 ======================================================================
 OUTER LOOP ITERATION =  202 (    4) CPU SECONDS = 2.374E+02 (6.627E+00)
 ----------------------------------------------------------------------
 |       Equation       | Rate | RMS Res | Max Res |  Linear Solution |
 +----------------------+------+---------+---------+------------------+
 | U-Mom                | 0.76 | 8.3E-04 | 2.1E-02 |       3.4E-02  OK|
 | V-Mom                | 0.74 | 7.2E-04 | 1.7E-02 |       3.6E-02  OK|
 | W-Mom                | 0.76 | 6.3E-04 | 1.0E-02 |       3.6E-02  OK|
 | P-Mass               | 0.64 | 2.1E-04 | 3.4E-03 |  9.4  3.6E-02  OK|
 +----------------------+------+---------+---------+------------------+
 | H-Energy             | 0.83 | 8.2E-04 | 2.4E-02 |  5.4  4.8E-02  OK|
 +----------------------+------+---------+---------+------------------+
 | K-TurbKE             | 0.71 | 7.8E-03 | 9.9E-02 |  5.4  4.6E-02  OK|
 | E-Diss.K             | 0.22 | 6.9E-03 | 1.7E-01 |  7.3  6.7E-03  OK|
 +----------------------+------+---------+---------+------------------+

 ======================================================================
 OUTER LOOP ITERATION =  203 (    5) CPU SECONDS = 2.384E+02 (7.637E+00)
 ----------------------------------------------------------------------
 |       Equation       | Rate | RMS Res | Max Res |  Linear Solution |
 +----------------------+------+---------+---------+------------------+
 | U-Mom                | 0.69 | 5.8E-04 | 1.7E-02 |       3.0E-02  OK|
 | V-Mom                | 0.69 | 5.0E-04 | 1.0E-02 |       3.2E-02  OK|
 | W-Mom                | 1.45 | 9.2E-04 | 1.4E-02 |       2.9E-02  OK|
 | P-Mass               | 0.65 | 1.3E-04 | 2.6E-03 |  9.4  3.3E-02  OK|
 +----------------------+------+---------+---------+------------------+
 | H-Energy             | 0.90 | 7.4E-04 | 1.7E-02 |  5.4  5.4E-02  OK|
 +----------------------+------+---------+---------+------------------+
 | K-TurbKE             | 0.80 | 6.3E-03 | 8.8E-02 |  5.4  4.7E-02  OK|
 | E-Diss.K             | 1.11 | 7.7E-03 | 1.3E-01 |  7.3  7.1E-03  OK|
 +----------------------+------+---------+---------+------------------+

 ======================================================================
 OUTER LOOP ITERATION =  204 (    6) CPU SECONDS = 2.394E+02 (8.655E+00)
 ----------------------------------------------------------------------
 |       Equation       | Rate | RMS Res | Max Res |  Linear Solution |
 +----------------------+------+---------+---------+------------------+
 | U-Mom                | 0.79 | 4.6E-04 | 1.3E-02 |       3.9E-02  OK|
 | V-Mom                | 0.86 | 4.3E-04 | 8.4E-03 |       3.9E-02  OK|
 | W-Mom                | 0.67 | 6.1E-04 | 9.6E-03 |       4.6E-02  OK|
 | P-Mass               | 0.77 | 1.0E-04 | 3.1E-03 |  9.4  2.9E-02  OK|
 +----------------------+------+---------+---------+------------------+
 | H-Energy             | 0.90 | 6.7E-04 | 2.0E-02 |  5.4  5.5E-02  OK|
 +----------------------+------+---------+---------+------------------+
 | K-TurbKE             | 0.21 | 1.3E-03 | 2.1E-02 |  5.4  7.9E-02  OK|
 | E-Diss.K             | 0.49 | 3.7E-03 | 9.8E-02 |  7.3  4.9E-03  OK|
 +----------------------+------+---------+---------+------------------+

 ======================================================================
 OUTER LOOP ITERATION =  205 (    7) CPU SECONDS = 2.405E+02 (9.662E+00)
 ----------------------------------------------------------------------
 |       Equation       | Rate | RMS Res | Max Res |  Linear Solution |
 +----------------------+------+---------+---------+------------------+
 | U-Mom                | 0.68 | 3.1E-04 | 8.5E-03 |       7.2E-02  OK|
 | V-Mom                | 0.74 | 3.2E-04 | 8.1E-03 |       6.7E-02  OK|
 | W-Mom                | 0.38 | 2.3E-04 | 4.1E-03 |       7.7E-02  OK|
 | P-Mass               | 0.77 | 8.0E-05 | 2.3E-03 |  9.4  4.9E-02  OK|
 +----------------------+------+---------+---------+------------------+
 | H-Energy             | 0.89 | 6.0E-04 | 1.4E-02 |  5.4  5.5E-02  OK|
 +----------------------+------+---------+---------+------------------+
 | K-TurbKE             | 1.54 | 2.0E-03 | 3.0E-02 |  5.4  8.1E-02  OK|
 | E-Diss.K             | 1.13 | 4.2E-03 | 6.4E-02 |  7.3  1.1E-02  OK|
 +----------------------+------+---------+---------+------------------+

 ======================================================================
 |                        Timescale Information                       |
 ----------------------------------------------------------------------
 |       Equation       |         Type          |      Timescale      |
 +----------------------+-----------------------+---------------------+
 | U-Mom                | Auto Timescale        |     1.88288E-01     |
 | V-Mom                | Auto Timescale        |     1.88288E-01     |
 | W-Mom                | Auto Timescale        |     1.88288E-01     |
 +----------------------+-----------------------+---------------------+
 | H-Energy             | Auto Timescale        |     1.88288E-01     |
 +----------------------+-----------------------+---------------------+
 | K-TurbKE             | Auto Timescale        |     1.88288E-01     |
 | E-Diss.K             | Auto Timescale        |     1.88288E-01     |
 +----------------------+-----------------------+---------------------+

 ======================================================================
 OUTER LOOP ITERATION =  206 (    8) CPU SECONDS = 2.415E+02 (1.067E+01)
 ----------------------------------------------------------------------
 |       Equation       | Rate | RMS Res | Max Res |  Linear Solution |
 +----------------------+------+---------+---------+------------------+
 | U-Mom                | 0.84 | 2.6E-04 | 7.0E-03 |       7.8E-02  OK|
 | V-Mom                | 0.92 | 2.9E-04 | 8.2E-03 |       7.2E-02  OK|
 | W-Mom                | 0.87 | 2.0E-04 | 3.9E-03 |       8.8E-02  OK|
 | P-Mass               | 0.88 | 7.0E-05 | 1.5E-03 |  9.4  6.4E-02  OK|
 +----------------------+------+---------+---------+------------------+
 | H-Energy             | 0.86 | 5.2E-04 | 8.6E-03 |  5.4  5.5E-02  OK|
 +----------------------+------+---------+---------+------------------+
 | K-TurbKE             | 0.52 | 1.1E-03 | 1.5E-02 |  5.4  6.3E-02  OK|
 | E-Diss.K             | 0.56 | 2.4E-03 | 4.6E-02 |  7.3  8.2E-03  OK|
 +----------------------+------+---------+---------+------------------+

 ======================================================================
 OUTER LOOP ITERATION =  207 (    9) CPU SECONDS = 2.425E+02 (1.169E+01)
 ----------------------------------------------------------------------
 |       Equation       | Rate | RMS Res | Max Res |  Linear Solution |
 +----------------------+------+---------+---------+------------------+
 | U-Mom                | 0.87 | 2.3E-04 | 8.2E-03 |       8.0E-02  OK|
 | V-Mom                | 0.92 | 2.7E-04 | 8.4E-03 |       7.3E-02  OK|
 | W-Mom                | 0.90 | 1.8E-04 | 3.9E-03 |       9.8E-02  OK|
 | P-Mass               | 0.97 | 6.8E-05 | 9.9E-04 |  9.4  7.9E-02  OK|
 +----------------------+------+---------+---------+------------------+
 | H-Energy             | 0.87 | 4.5E-04 | 5.9E-03 |  5.4  5.6E-02  OK|
 +----------------------+------+---------+---------+------------------+
 | K-TurbKE             | 0.34 | 3.6E-04 | 4.4E-03 |  5.4  7.8E-02  OK|
 | E-Diss.K             | 0.32 | 7.5E-04 | 1.1E-02 |  7.3  9.9E-03  OK|
 +----------------------+------+---------+---------+------------------+

 ======================================================================
 OUTER LOOP ITERATION =  208 (   10) CPU SECONDS = 2.435E+02 (1.269E+01)
 ----------------------------------------------------------------------
 |       Equation       | Rate | RMS Res | Max Res |  Linear Solution |
 +----------------------+------+---------+---------+------------------+
 | U-Mom                | 0.92 | 2.1E-04 | 9.5E-03 |       8.4E-02  OK|
 | V-Mom                | 0.94 | 2.5E-04 | 8.5E-03 |       7.6E-02  OK|
 | W-Mom                | 0.86 | 1.6E-04 | 4.3E-03 |       1.1E-01  ok|
 | P-Mass               | 0.87 | 5.9E-05 | 8.6E-04 |  9.4  9.5E-02  OK|
 +----------------------+------+---------+---------+------------------+
 | H-Energy             | 0.88 | 4.0E-04 | 4.0E-03 |  5.4  5.6E-02  OK|
 +----------------------+------+---------+---------+------------------+
 | K-TurbKE             | 0.87 | 3.1E-04 | 4.2E-03 |  5.4  7.3E-02  OK|
 | E-Diss.K             | 0.65 | 4.9E-04 | 1.6E-02 |  7.3  1.6E-02  OK|
 +----------------------+------+---------+---------+------------------+

 ======================================================================
 OUTER LOOP ITERATION =  209 (   11) CPU SECONDS = 2.445E+02 (1.368E+01)
 ----------------------------------------------------------------------
 |       Equation       | Rate | RMS Res | Max Res |  Linear Solution |
 +----------------------+------+---------+---------+------------------+
 | U-Mom                | 0.95 | 2.0E-04 | 1.1E-02 |       3.1E-02  OK|
 | V-Mom                | 0.95 | 2.4E-04 | 8.4E-03 |       2.8E-02  OK|
 | W-Mom                | 0.94 | 1.5E-04 | 4.6E-03 |       6.3E-02  OK|
 | P-Mass               | 0.92 | 5.5E-05 | 8.1E-04 | 13.5  3.7E-02  OK|
 +----------------------+------+---------+---------+------------------+
 | H-Energy             | 0.89 | 3.5E-04 | 3.9E-03 |  5.4  5.6E-02  OK|
 +----------------------+------+---------+---------+------------------+
 | K-TurbKE             | 0.78 | 2.5E-04 | 4.1E-03 |  5.4  6.6E-02  OK|
 | E-Diss.K             | 1.17 | 5.7E-04 | 1.8E-02 |  7.3  9.9E-03  OK|
 +----------------------+------+---------+---------+------------------+

 ======================================================================
 OUTER LOOP ITERATION =  210 (   12) CPU SECONDS = 2.455E+02 (1.473E+01)
 ----------------------------------------------------------------------
 |       Equation       | Rate | RMS Res | Max Res |  Linear Solution |
 +----------------------+------+---------+---------+------------------+
 | U-Mom                | 0.96 | 1.9E-04 | 1.2E-02 |       2.9E-02  OK|
 | V-Mom                | 0.94 | 2.3E-04 | 8.2E-03 |       2.6E-02  OK|
 | W-Mom                | 0.95 | 1.4E-04 | 5.0E-03 |       5.5E-02  OK|
 | P-Mass               | 1.00 | 5.4E-05 | 8.0E-04 | 13.5  3.4E-02  OK|
 +----------------------+------+---------+---------+------------------+
 | H-Energy             | 0.88 | 3.1E-04 | 4.0E-03 |  5.4  5.5E-02  OK|
 +----------------------+------+---------+---------+------------------+
 | K-TurbKE             | 0.91 | 2.2E-04 | 3.1E-03 |  5.4  6.4E-02  OK|
 | E-Diss.K             | 0.89 | 5.1E-04 | 1.5E-02 |  7.3  8.9E-03  OK|
 +----------------------+------+---------+---------+------------------+

 ======================================================================
 |                        Timescale Information                       |
 ----------------------------------------------------------------------
 |       Equation       |         Type          |      Timescale      |
 +----------------------+-----------------------+---------------------+
 | U-Mom                | Auto Timescale        |     1.85447E-01     |
 | V-Mom                | Auto Timescale        |     1.85447E-01     |
 | W-Mom                | Auto Timescale        |     1.85447E-01     |
 +----------------------+-----------------------+---------------------+
 | H-Energy             | Auto Timescale        |     1.85447E-01     |
 +----------------------+-----------------------+---------------------+
 | K-TurbKE             | Auto Timescale        |     1.85447E-01     |
 | E-Diss.K             | Auto Timescale        |     1.85447E-01     |
 +----------------------+-----------------------+---------------------+

 ======================================================================
 OUTER LOOP ITERATION =  211 (   13) CPU SECONDS = 2.466E+02 (1.577E+01)
 ----------------------------------------------------------------------
 |       Equation       | Rate | RMS Res | Max Res |  Linear Solution |
 +----------------------+------+---------+---------+------------------+
 | U-Mom                | 0.97 | 1.8E-04 | 1.3E-02 |       2.9E-02  OK|
 | V-Mom                | 0.95 | 2.1E-04 | 8.3E-03 |       2.6E-02  OK|
 | W-Mom                | 0.93 | 1.3E-04 | 4.9E-03 |       6.1E-02  OK|
 | P-Mass               | 0.89 | 4.8E-05 | 7.1E-04 | 13.5  3.5E-02  OK|
 +----------------------+------+---------+---------+------------------+
 | H-Energy             | 0.89 | 2.8E-04 | 4.7E-03 |  5.4  5.3E-02  OK|
 +----------------------+------+---------+---------+------------------+
 | K-TurbKE             | 0.97 | 2.2E-04 | 2.8E-03 |  5.4  6.4E-02  OK|
 | E-Diss.K             | 0.92 | 4.7E-04 | 1.5E-02 |  7.3  9.3E-03  OK|
 +----------------------+------+---------+---------+------------------+

 ======================================================================
 OUTER LOOP ITERATION =  212 (   14) CPU SECONDS = 2.476E+02 (1.680E+01)
 ----------------------------------------------------------------------
 |       Equation       | Rate | RMS Res | Max Res |  Linear Solution |
 +----------------------+------+---------+---------+------------------+
 | U-Mom                | 0.99 | 1.8E-04 | 1.4E-02 |       2.9E-02  OK|
 | V-Mom                | 0.95 | 2.0E-04 | 8.7E-03 |       2.6E-02  OK|
 | W-Mom                | 0.93 | 1.2E-04 | 5.2E-03 |       6.7E-02  OK|
 | P-Mass               | 0.90 | 4.4E-05 | 6.3E-04 | 13.5  3.7E-02  OK|
 +----------------------+------+---------+---------+------------------+
 | H-Energy             | 0.89 | 2.5E-04 | 4.6E-03 |  5.4  5.2E-02  OK|
 +----------------------+------+---------+---------+------------------+
 | K-TurbKE             | 1.01 | 2.2E-04 | 2.1E-03 |  5.4  6.4E-02  OK|
 | E-Diss.K             | 1.02 | 4.8E-04 | 1.4E-02 |  7.3  9.4E-03  OK|
 +----------------------+------+---------+---------+------------------+

 ======================================================================
 OUTER LOOP ITERATION =  213 (   15) CPU SECONDS = 2.486E+02 (1.783E+01)
 ----------------------------------------------------------------------
 |       Equation       | Rate | RMS Res | Max Res |  Linear Solution |
 +----------------------+------+---------+---------+------------------+
 | U-Mom                | 0.97 | 1.8E-04 | 1.3E-02 |       2.9E-02  OK|
 | V-Mom                | 0.96 | 2.0E-04 | 9.2E-03 |       2.7E-02  OK|
 | W-Mom                | 0.92 | 1.1E-04 | 4.9E-03 |       7.4E-02  OK|
 | P-Mass               | 0.91 | 4.0E-05 | 5.6E-04 | 13.5  3.7E-02  OK|
 +----------------------+------+---------+---------+------------------+
 | H-Energy             | 0.89 | 2.2E-04 | 4.4E-03 |  5.4  5.1E-02  OK|
 +----------------------+------+---------+---------+------------------+
 | K-TurbKE             | 1.00 | 2.2E-04 | 1.7E-03 |  5.4  6.3E-02  OK|
 | E-Diss.K             | 0.97 | 4.7E-04 | 1.3E-02 |  7.3  9.6E-03  OK|
 +----------------------+------+---------+---------+------------------+

 ======================================================================
 OUTER LOOP ITERATION =  214 (   16) CPU SECONDS = 2.497E+02 (1.888E+01)
 ----------------------------------------------------------------------
 |       Equation       | Rate | RMS Res | Max Res |  Linear Solution |
 +----------------------+------+---------+---------+------------------+
 | U-Mom                | 0.97 | 1.7E-04 | 1.2E-02 |       2.9E-02  OK|
 | V-Mom                | 0.96 | 1.9E-04 | 9.8E-03 |       2.7E-02  OK|
 | W-Mom                | 0.91 | 1.0E-04 | 4.8E-03 |       8.1E-02  OK|
 | P-Mass               | 0.91 | 3.6E-05 | 5.1E-04 | 13.5  3.8E-02  OK|
 +----------------------+------+---------+---------+------------------+
 | H-Energy             | 0.90 | 2.0E-04 | 3.9E-03 |  5.4  5.1E-02  OK|
 +----------------------+------+---------+---------+------------------+
 | K-TurbKE             | 0.99 | 2.2E-04 | 1.5E-03 |  5.4  6.2E-02  OK|
 | E-Diss.K             | 0.93 | 4.3E-04 | 1.2E-02 |  7.3  1.0E-02  OK|
 +----------------------+------+---------+---------+------------------+

 ======================================================================
 OUTER LOOP ITERATION =  215 (   17) CPU SECONDS = 2.507E+02 (1.993E+01)
 ----------------------------------------------------------------------
 |       Equation       | Rate | RMS Res | Max Res |  Linear Solution |
 +----------------------+------+---------+---------+------------------+
 | U-Mom                | 0.98 | 1.7E-04 | 1.1E-02 |       2.9E-02  OK|
 | V-Mom                | 0.96 | 1.8E-04 | 1.0E-02 |       2.7E-02  OK|
 | W-Mom                | 0.91 | 9.3E-05 | 4.5E-03 |       8.8E-02  OK|
 | P-Mass               | 0.91 | 3.3E-05 | 4.5E-04 | 13.5  3.9E-02  OK|
 +----------------------+------+---------+---------+------------------+
 | H-Energy             | 0.91 | 1.8E-04 | 3.3E-03 |  5.4  5.1E-02  OK|
 +----------------------+------+---------+---------+------------------+
 | K-TurbKE             | 0.99 | 2.1E-04 | 1.8E-03 |  5.4  6.0E-02  OK|
 | E-Diss.K             | 0.92 | 4.0E-04 | 1.1E-02 |  7.3  1.1E-02  OK|
 +----------------------+------+---------+---------+------------------+

 ======================================================================
 |                        Timescale Information                       |
 ----------------------------------------------------------------------
 |       Equation       |         Type          |      Timescale      |
 +----------------------+-----------------------+---------------------+
 | U-Mom                | Auto Timescale        |     1.81831E-01     |
 | V-Mom                | Auto Timescale        |     1.81831E-01     |
 | W-Mom                | Auto Timescale        |     1.81831E-01     |
 +----------------------+-----------------------+---------------------+
 | H-Energy             | Auto Timescale        |     1.81831E-01     |
 +----------------------+-----------------------+---------------------+
 | K-TurbKE             | Auto Timescale        |     1.81831E-01     |
 | E-Diss.K             | Auto Timescale        |     1.81831E-01     |
 +----------------------+-----------------------+---------------------+

 ======================================================================
 OUTER LOOP ITERATION =  216 (   18) CPU SECONDS = 2.517E+02 (2.094E+01)
 ----------------------------------------------------------------------
 |       Equation       | Rate | RMS Res | Max Res |  Linear Solution |
 +----------------------+------+---------+---------+------------------+
 | U-Mom                | 0.97 | 1.6E-04 | 1.2E-02 |       2.9E-02  OK|
 | V-Mom                | 0.96 | 1.7E-04 | 1.0E-02 |       2.7E-02  OK|
 | W-Mom                | 0.91 | 8.5E-05 | 4.2E-03 |       9.3E-02  OK|
 | P-Mass               | 0.92 | 3.0E-05 | 4.1E-04 | 13.5  3.9E-02  OK|
 +----------------------+------+---------+---------+------------------+
 | H-Energy             | 0.91 | 1.6E-04 | 2.6E-03 |  5.4  5.2E-02  OK|
 +----------------------+------+---------+---------+------------------+
 | K-TurbKE             | 0.98 | 2.1E-04 | 2.0E-03 |  5.4  5.7E-02  OK|
 | E-Diss.K             | 0.90 | 3.6E-04 | 1.0E-02 |  7.3  1.1E-02  OK|
 +----------------------+------+---------+---------+------------------+

 ======================================================================
 OUTER LOOP ITERATION =  217 (   19) CPU SECONDS = 2.528E+02 (2.202E+01)
 ----------------------------------------------------------------------
 |       Equation       | Rate | RMS Res | Max Res |  Linear Solution |
 +----------------------+------+---------+---------+------------------+
 | U-Mom                | 0.94 | 1.5E-04 | 1.1E-02 |       2.9E-02  OK|
 | V-Mom                | 0.95 | 1.6E-04 | 1.0E-02 |       2.7E-02  OK|
 | W-Mom                | 0.91 | 7.7E-05 | 3.6E-03 |       9.9E-02  OK|
 | P-Mass               | 0.92 | 2.8E-05 | 3.7E-04 | 13.5  4.0E-02  OK|
 +----------------------+------+---------+---------+------------------+
 | H-Energy             | 0.93 | 1.5E-04 | 2.3E-03 |  5.4  5.5E-02  OK|
 +----------------------+------+---------+---------+------------------+
 | K-TurbKE             | 0.98 | 2.0E-04 | 2.4E-03 |  5.4  5.6E-02  OK|
 | E-Diss.K             | 0.91 | 3.3E-04 | 8.9E-03 |  7.3  1.1E-02  OK|
 +----------------------+------+---------+---------+------------------+

 ======================================================================
 OUTER LOOP ITERATION =  218 (   20) CPU SECONDS = 2.538E+02 (2.306E+01)
 ----------------------------------------------------------------------
 |       Equation       | Rate | RMS Res | Max Res |  Linear Solution |
 +----------------------+------+---------+---------+------------------+
 | U-Mom                | 0.94 | 1.4E-04 | 1.0E-02 |       2.9E-02  OK|
 | V-Mom                | 0.95 | 1.6E-04 | 1.0E-02 |       2.8E-02  OK|
 | W-Mom                | 0.91 | 7.0E-05 | 3.2E-03 |       1.0E-01  ok|
 | P-Mass               | 0.92 | 2.5E-05 | 3.3E-04 | 13.5  4.1E-02  OK|
 +----------------------+------+---------+---------+------------------+
 | H-Energy             | 0.94 | 1.4E-04 | 2.2E-03 |  5.4  5.8E-02  OK|
 +----------------------+------+---------+---------+------------------+
 | K-TurbKE             | 0.98 | 2.0E-04 | 2.6E-03 |  5.4  5.5E-02  OK|
 | E-Diss.K             | 0.91 | 3.0E-04 | 8.0E-03 |  7.3  1.1E-02  OK|
 +----------------------+------+---------+---------+------------------+

 ======================================================================
 OUTER LOOP ITERATION =  219 (   21) CPU SECONDS = 2.549E+02 (2.406E+01)
 ----------------------------------------------------------------------
 |       Equation       | Rate | RMS Res | Max Res |  Linear Solution |
 +----------------------+------+---------+---------+------------------+
 | U-Mom                | 0.93 | 1.3E-04 | 8.6E-03 |       2.9E-02  OK|
 | V-Mom                | 0.94 | 1.5E-04 | 9.5E-03 |       2.8E-02  OK|
 | W-Mom                | 0.91 | 6.4E-05 | 2.9E-03 |       1.1E-01  ok|
 | P-Mass               | 0.93 | 2.4E-05 | 2.9E-04 | 13.5  4.2E-02  OK|
 +----------------------+------+---------+---------+------------------+
 | H-Energy             | 0.95 | 1.4E-04 | 2.0E-03 |  5.4  6.1E-02  OK|
 +----------------------+------+---------+---------+------------------+
 | K-TurbKE             | 0.97 | 1.9E-04 | 2.7E-03 |  5.4  5.5E-02  OK|
 | E-Diss.K             | 0.92 | 2.7E-04 | 7.2E-03 |  7.3  1.1E-02  OK|
 +----------------------+------+---------+---------+------------------+

 ======================================================================
 OUTER LOOP ITERATION =  220 (   22) CPU SECONDS = 2.559E+02 (2.509E+01)
 ----------------------------------------------------------------------
 |       Equation       | Rate | RMS Res | Max Res |  Linear Solution |
 +----------------------+------+---------+---------+------------------+
 | U-Mom                | 0.92 | 1.2E-04 | 6.8E-03 |       2.9E-02  OK|
 | V-Mom                | 0.93 | 1.4E-04 | 8.8E-03 |       2.8E-02  OK|
 | W-Mom                | 0.92 | 5.9E-05 | 2.8E-03 |       1.1E-01  ok|
 | P-Mass               | 0.93 | 2.2E-05 | 2.7E-04 | 13.5  4.3E-02  OK|
 +----------------------+------+---------+---------+------------------+
 | H-Energy             | 0.95 | 1.3E-04 | 1.8E-03 |  5.4  6.5E-02  OK|
 +----------------------+------+---------+---------+------------------+
 | K-TurbKE             | 0.97 | 1.9E-04 | 2.7E-03 |  5.4  5.4E-02  OK|
 | E-Diss.K             | 0.92 | 2.5E-04 | 6.6E-03 |  7.3  1.2E-02  OK|
 +----------------------+------+---------+---------+------------------+

 ======================================================================
 |                        Timescale Information                       |
 ----------------------------------------------------------------------
 |       Equation       |         Type          |      Timescale      |
 +----------------------+-----------------------+---------------------+
 | U-Mom                | Auto Timescale        |     1.78394E-01     |
 | V-Mom                | Auto Timescale        |     1.78394E-01     |
 | W-Mom                | Auto Timescale        |     1.78394E-01     |
 +----------------------+-----------------------+---------------------+
 | H-Energy             | Auto Timescale        |     1.78394E-01     |
 +----------------------+-----------------------+---------------------+
 | K-TurbKE             | Auto Timescale        |     1.78394E-01     |
 | E-Diss.K             | Auto Timescale        |     1.78394E-01     |
 +----------------------+-----------------------+---------------------+

 ======================================================================
 OUTER LOOP ITERATION =  221 (   23) CPU SECONDS = 2.569E+02 (2.612E+01)
 ----------------------------------------------------------------------
 |       Equation       | Rate | RMS Res | Max Res |  Linear Solution |
 +----------------------+------+---------+---------+------------------+
 | U-Mom                | 0.93 | 1.1E-04 | 6.1E-03 |       2.8E-02  OK|
 | V-Mom                | 0.93 | 1.3E-04 | 8.0E-03 |       2.8E-02  OK|
 | W-Mom                | 0.93 | 5.5E-05 | 2.7E-03 |       1.1E-01  ok|
 | P-Mass               | 0.94 | 2.1E-05 | 2.4E-04 | 13.5  4.3E-02  OK|
 +----------------------+------+---------+---------+------------------+
 | H-Energy             | 0.95 | 1.2E-04 | 1.8E-03 |  5.4  6.5E-02  OK|
 +----------------------+------+---------+---------+------------------+
 | K-TurbKE             | 0.96 | 1.8E-04 | 2.5E-03 |  5.4  5.3E-02  OK|
 | E-Diss.K             | 0.92 | 2.3E-04 | 6.0E-03 |  7.3  1.2E-02  OK|
 +----------------------+------+---------+---------+------------------+

 ======================================================================
 OUTER LOOP ITERATION =  222 (   24) CPU SECONDS = 2.579E+02 (2.714E+01)
 ----------------------------------------------------------------------
 |       Equation       | Rate | RMS Res | Max Res |  Linear Solution |
 +----------------------+------+---------+---------+------------------+
 | U-Mom                | 0.93 | 1.1E-04 | 5.4E-03 |       2.8E-02  OK|
 | V-Mom                | 0.93 | 1.2E-04 | 7.3E-03 |       2.8E-02  OK|
 | W-Mom                | 0.94 | 5.2E-05 | 2.6E-03 |       1.2E-01  ok|
 | P-Mass               | 0.94 | 1.9E-05 | 2.1E-04 | 13.5  4.4E-02  OK|
 +----------------------+------+---------+---------+------------------+
 | H-Energy             | 0.94 | 1.2E-04 | 1.6E-03 |  5.4  6.6E-02  OK|
 +----------------------+------+---------+---------+------------------+
 | K-TurbKE             | 0.96 | 1.7E-04 | 2.5E-03 |  5.4  5.3E-02  OK|
 | E-Diss.K             | 0.94 | 2.2E-04 | 5.5E-03 |  7.3  1.2E-02  OK|
 +----------------------+------+---------+---------+------------------+

 ======================================================================
 OUTER LOOP ITERATION =  223 (   25) CPU SECONDS = 2.589E+02 (2.815E+01)
 ----------------------------------------------------------------------
 |       Equation       | Rate | RMS Res | Max Res |  Linear Solution |
 +----------------------+------+---------+---------+------------------+
 | U-Mom                | 0.94 | 9.9E-05 | 4.7E-03 |       2.8E-02  OK|
 | V-Mom                | 0.93 | 1.1E-04 | 6.5E-03 |       2.8E-02  OK|
 | W-Mom                | 0.95 | 4.9E-05 | 2.6E-03 |       1.2E-01  ok|
 | P-Mass               | 0.94 | 1.8E-05 | 1.9E-04 | 13.5  4.5E-02  OK|
 +----------------------+------+---------+---------+------------------+
 | H-Energy             | 0.94 | 1.1E-04 | 1.4E-03 |  5.4  6.8E-02  OK|
 +----------------------+------+---------+---------+------------------+
 | K-TurbKE             | 0.95 | 1.6E-04 | 2.6E-03 |  5.4  5.3E-02  OK|
 | E-Diss.K             | 0.94 | 2.0E-04 | 5.2E-03 |  7.3  1.2E-02  OK|
 +----------------------+------+---------+---------+------------------+

 ======================================================================
 OUTER LOOP ITERATION =  224 (   26) CPU SECONDS = 2.600E+02 (2.917E+01)
 ----------------------------------------------------------------------
 |       Equation       | Rate | RMS Res | Max Res |  Linear Solution |
 +----------------------+------+---------+---------+------------------+
 | U-Mom                | 0.94 | 9.3E-05 | 4.0E-03 |       2.8E-02  OK|
 | V-Mom                | 0.94 | 1.0E-04 | 5.8E-03 |       2.8E-02  OK|
 | W-Mom                | 0.96 | 4.7E-05 | 2.6E-03 |       1.2E-01  ok|
 | P-Mass               | 0.95 | 1.7E-05 | 1.7E-04 | 13.5  4.6E-02  OK|
 +----------------------+------+---------+---------+------------------+
 | H-Energy             | 0.94 | 1.0E-04 | 1.4E-03 |  5.4  6.8E-02  OK|
 +----------------------+------+---------+---------+------------------+
 | K-TurbKE             | 0.95 | 1.6E-04 | 2.6E-03 |  5.4  5.3E-02  OK|
 | E-Diss.K             | 0.94 | 1.9E-04 | 4.8E-03 |  7.3  1.2E-02  OK|
 +----------------------+------+---------+---------+------------------+

 ======================================================================
 OUTER LOOP ITERATION =  225 (   27) CPU SECONDS = 2.610E+02 (3.018E+01)
 ----------------------------------------------------------------------
 |       Equation       | Rate | RMS Res | Max Res |  Linear Solution |
 +----------------------+------+---------+---------+------------------+
 | U-Mom                | 0.94 | 8.8E-05 | 3.5E-03 |       2.8E-02  OK|
 | V-Mom                | 0.94 | 9.7E-05 | 5.1E-03 |       2.8E-02  OK|
 | W-Mom                | 0.96 | 4.5E-05 | 2.5E-03 |       1.2E-01  ok|
 | P-Mass               | 0.96 | 1.7E-05 | 1.6E-04 | 13.5  4.7E-02  OK|
 +----------------------+------+---------+---------+------------------+
 | H-Energy             | 0.96 | 9.8E-05 | 1.3E-03 |  5.4  6.8E-02  OK|
 +----------------------+------+---------+---------+------------------+
 | K-TurbKE             | 0.95 | 1.5E-04 | 2.5E-03 |  5.4  5.3E-02  OK|
 | E-Diss.K             | 0.94 | 1.8E-04 | 4.5E-03 |  7.3  1.2E-02  OK|
 +----------------------+------+---------+---------+------------------+
                   
 CFD Solver finished: Mon Dec 10 13:20:09 2018
 CFD Solver wall clock seconds: 2.7747E+01

 ======================================================================
              Termination and Interrupt Condition Summary
 ======================================================================
    
 CFD Solver: All target criteria reached
   (Equation residuals)

 ======================================================================
              Boundary Flow and Total Source Term Summary
 ======================================================================

 +--------------------------------------------------------------------+
 |                               U-Mom                                |
 +--------------------------------------------------------------------+
 Boundary         : Default Domain Default                  1.8511E+01
 Boundary         : in1                                     7.4827E-05
 Boundary         : in2                                    -6.6084E-05
 Boundary         : out                                    -1.5194E+01
                                                           -----------
 Domain Imbalance :                                         3.3176E+00

 +--------------------------------------------------------------------+
 |                               V-Mom                                |
 +--------------------------------------------------------------------+
 Boundary         : Default Domain Default                 -7.9131E+01
 Boundary         : in1                                     8.2846E+04
 Boundary         : in2                                    -8.2778E+04
 Boundary         : out                                     1.1598E+01
                                                           -----------
 Domain Imbalance :                                        -1.3631E-01

 +--------------------------------------------------------------------+
 |                               W-Mom                                |
 +--------------------------------------------------------------------+
 Boundary         : Default Domain Default                 -2.0290E+04
 Boundary         : in1                                    -1.7018E-05
 Boundary         : in2                                    -6.2115E-06
 Boundary         : out                                     2.0333E+04
                                                           -----------
 Domain Imbalance :                                         4.3422E+01

 +--------------------------------------------------------------------+
 |                               P-Mass                               |
 +--------------------------------------------------------------------+
 Boundary         : in1                                     1.5000E+03
 Boundary         : in2                                     1.5000E+03
 Boundary         : out                                    -2.9999E+03
                                                           -----------
 Domain Imbalance :                                         6.9092E-02

 +--------------------------------------------------------------------+
 |                              H-Energy                              |
 +--------------------------------------------------------------------+
 Boundary         : in1                                     1.0569E+08
 Boundary         : in2                                    -8.2484E+07
 Boundary         : out                                    -2.3276E+07
                                                           -----------
 Domain Imbalance :                                        -6.7294E+04


 +--------------------------------------------------------------------+
 |                     Normalised Imbalance Summary                   |
 +--------------------------------------------------------------------+
 |       Equation       |      Maximum Flow     |     Imbalance (%)   |
 +--------------------------------------------------------------------+
 | U-Mom                |       8.2846E+04      |        0.0040       |
 | V-Mom                |       8.2846E+04      |       -0.0002       |
 | W-Mom                |       8.2846E+04      |        0.0524       |
 | P-Mass               |       2.9999E+03      |        0.0023       |
 +----------------------+-----------------------+---------------------+
 | H-Energy             |       1.0569E+08      |       -0.0637       |
 +----------------------+-----------------------+---------------------+

 ======================================================================
                     Wall Force and Moment Summary
 ======================================================================
                                                                          
 Notes:
 1. Pressure integrals exclude the reference pressure.  To include
    it, set the expert parameter 'include pref in forces = t'.


 +--------------------------------------------------------------------+
 |                      Pressure Force On Walls                       |
 +--------------------------------------------------------------------+
                                    X-Comp.      Y-Comp.      Z-Comp.

 Domain Group: Default Domain

 Default Domain Default          -2.9854E+01   6.2680E+01   2.0539E+04
                                  -----------  -----------  -----------
 Domain Group Totals :           -2.9854E+01   6.2680E+01   2.0539E+04


 +--------------------------------------------------------------------+
 |                       Viscous Force On Walls                       |
 +--------------------------------------------------------------------+
                                    X-Comp.      Y-Comp.      Z-Comp.

 Domain Group: Default Domain

 Default Domain Default           1.1284E+01   1.6356E+01  -2.4883E+02
                                  -----------  -----------  -----------
 Domain Group Totals :            1.1284E+01   1.6356E+01  -2.4883E+02


 +--------------------------------------------------------------------+
 |                      Pressure Moment On Walls                      |
 +--------------------------------------------------------------------+
                                    X-Comp.      Y-Comp.      Z-Comp.

 Domain Group: Default Domain

 Default Domain Default          -6.1455E+01  -6.9479E+01  -1.3845E+05
                                  -----------  -----------  -----------
 Domain Group Totals :           -6.1455E+01  -6.9479E+01  -1.3845E+05


 +--------------------------------------------------------------------+
 |                       Viscous Moment On Walls                      |
 +--------------------------------------------------------------------+
                                    X-Comp.      Y-Comp.      Z-Comp.

 Domain Group: Default Domain

 Default Domain Default          -1.2059E+00   1.0384E+01  -5.5605E+03
                                  -----------  -----------  -----------
 Domain Group Totals :           -1.2059E+00   1.0384E+01  -5.5605E+03


 +--------------------------------------------------------------------+
 |                   Locations of Maximum Residuals                   |
 +--------------------------------------------------------------------+
 |       Equation       |      Domain Name      |     Node Number     |
 +--------------------------------------------------------------------+
 | U-Mom                | Default Domain        |          24798      |
 | V-Mom                | Default Domain        |          24801      |
 | W-Mom                | Default Domain        |          24892      |
 | P-Mass               | Default Domain        |           2245      |
 +----------------------+-----------------------+---------------------+
 | H-Energy             | Default Domain        |            787      |
 +----------------------+-----------------------+---------------------+
 | K-TurbKE             | Default Domain        |          19665      |
 | E-Diss.K             | Default Domain        |          26093      |
 +----------------------+-----------------------+---------------------+

 ======================================================================
 |                     False Transient Information                    |
 +--------------------------------------------------------------------+
 |       Equation       |         Type          | Elapsed Pseudo-Time |
 +--------------------------------------------------------------------+
 | U-Mom                | Auto Timescale        |     4.96199E+00     |
 | V-Mom                | Auto Timescale        |     4.96199E+00     |
 | W-Mom                | Auto Timescale        |     4.96199E+00     |
 +----------------------+-----------------------+---------------------+
 | H-Energy             | Auto Timescale        |     4.96199E+00     |
 +----------------------+-----------------------+---------------------+
 | K-TurbKE             | Auto Timescale        |     4.96199E+00     |
 | E-Diss.K             | Auto Timescale        |     4.96199E+00     |
 +----------------------+-----------------------+---------------------+

 +--------------------------------------------------------------------+
 |                     Average Scale Information                      |
 +--------------------------------------------------------------------+

 Domain Name : Default Domain
     Global Length                                         = 3.1961E+00
     Minimum Extent                                        = 4.0000E+00
     Maximum Extent                                        = 6.0000E+00
     Density                                               = 9.9700E+02
     Dynamic Viscosity                                     = 8.8990E-04
     Velocity                                              = 5.7053E+00
     Advection Time                                        = 5.6020E-01
     Reynolds Number                                       = 2.0429E+07
     Thermal Conductivity                                  = 6.0690E-01
     Specific Heat Capacity at Constant Pressure           = 4.1817E+03
     Prandtl Number                                        = 6.1316E+00
     Temperature Range                                     = 3.0023E+01

 +--------------------------------------------------------------------+
 |                     Variable Range Information                     |
 +--------------------------------------------------------------------+

 Domain Name : Default Domain
 +--------------------------------------------------------------------+
 |      Variable Name                         |    min    |    max    |
 +--------------------------------------------------------------------+
 | Density                                    |  9.97E+02 |  9.97E+02 |
 | Specific Heat Capacity at Constant Pressure|  4.18E+03 |  4.18E+03 |
 | Dynamic Viscosity                          |  8.90E-04 |  8.90E-04 |
 | Thermal Conductivity                       |  6.07E-01 |  6.07E-01 |
 | Static Entropy                             | -1.89E+02 |  2.30E+02 |
 | Velocity u                                 | -7.53E+00 |  7.53E+00 |
 | Velocity v                                 | -7.59E+00 |  7.55E+00 |
 | Velocity w                                 | -7.88E+00 |  1.96E+00 |
 | Pressure                                   | -1.37E+04 |  1.05E+05 |
 | Turbulence Kinetic Energy                  |  9.87E-05 |  9.36E+00 |
 | Turbulence Eddy Dissipation                |  3.03E-04 |  9.21E+02 |
 | Eddy Viscosity                             |  1.42E-03 |  3.77E+02 |
 | Temperature                                |  2.85E+02 |  3.15E+02 |
 | Static Enthalpy                            | -5.50E+04 |  7.05E+04 |
 +--------------------------------------------------------------------+

 +--------------------------------------------------------------------+
 |               CPU Requirements of Numerical Solution               |
 +--------------------------------------------------------------------+

 Subsystem Name                  Discretization       Linear Solution
                                (secs.   %total)     (secs.   %total) 
 ----------------------------------------------------------------------
 Momentum and Mass              9.57E+00  27.4 %     3.08E+00   8.8 %
 Heat Transfer                  3.25E+00   9.3 %     1.09E+00   3.1 %
 TurbKE and Diss.K              5.03E+00  14.4 %     2.38E+00   6.8 %
                                -------- -------     --------  ------
 Subsystem Summary              1.78E+01  51.1 %     6.56E+00  18.8 %

 File Reading                   2.30E-02    0.1 %
 Variable Updates               3.17E+00    9.1 %
 File Writing                   5.66E-01    1.6 %
 Miscellaneous                  6.77E+00   19.4 %
                                --------
 Total                          3.49E+01

 +--------------------------------------------------------------------+
 |                   Job Information at End of Run                    |
 +--------------------------------------------------------------------+

 Host computer:  ENPC-LAB121 (PID:12904)

 Job finished:   Mon Dec 10 13:20:13 2018

 Total wall clock time: 3.493E+01 seconds
             or: (          0:         0:         0:    34.926 )
                 (       Days:     Hours:   Minutes:   Seconds )

End of solution stage.

 +--------------------------------------------------------------------+
 | The results from this run of the ANSYS CFX Solver have been        |
 | written to D:/CFD                                                  |
 | BackUps/CFD-Static-Mixer/StaticMixerDX_pending/dp15_CFX_Solution/- |
 | Fluid Flow CFX_004.res                                             |
 +--------------------------------------------------------------------+


 +--------------------------------------------------------------------+
 | For CFX runs launched from Workbench, the final locations of       |
 | directories and files generated may differ from those shown.       |
 +--------------------------------------------------------------------+


This run of the ANSYS CFX Solver has finished.
