 This run of the CFX Release 19.1 Solver started at 13:10:32 on 10 Dec
 2018 by user jc2182 on ENPC-LAB121 (intel_xeon64.sse2_winnt) using the
 command:
 
  "C:\Program Files\ANSYS Inc\v191\CFX\bin\perllib\cfx5solve.pl" -batch
    -ccl runInput.ccl -fullname "Fluid Flow CFX_005"
 
 Release 19.1
 
  Point Releases and Patches installed:
  ANSYS, Inc. Products Release 19.1
  SpaceClaim Release 19.1
  Autodyn Release 19.1
  LS-DYNA Release 19.1
  CFD-Post only Release 19.1
  CFX (includes CFD-Post) Release 19.1
  Chemkin Release 19.1
  EnSight Release 19.1
  FENSAP-ICE Release 19.1
  Fluent (includes CFD-Post) Release 19.1
  Forte Release 19.1
  Polyflow (includes CFD-Post) Release 19.1
  TurboGrid Release 19.1
  ICEM CFD Release 19.1
  Customization Files for User Programmable Features Release 19.1
  Mechanical Products Release 19.1
  Icepak (includes CFD-Post) Release 19.1
  Remote Solve Manager Standalone Services Release 19.1
  ACIS Geometry Interface Release 19.1
  Catia, Version 5 Geometry Interface Release 19.1
  NX Geometry Interface Release 19.1
  Parasolid Geometry Interface  Release 19.1
  ANSYS, Inc. License Manager Release 19.1
 
 Setting up CFX Solver run ...
 
 
 +--------------------------------------------------------------------+
 |                                                                    |
 |                    CFX Command Language for Run                    |
 |                                                                    |
 +--------------------------------------------------------------------+
 
 LIBRARY:
   CEL:
     EXPRESSIONS:
       inMassFlow = 1500 [kg s^-1]
     END
   END
   MATERIAL: Water
     Material Description = Water (liquid)
     Material Group = Water Data, Constant Property Liquids
     Option = Pure Substance
     Thermodynamic State = Liquid
     PROPERTIES:
       Option = General Material
       EQUATION OF STATE:
         Density = 997.0 [kg m^-3]
         Molar Mass = 18.02 [kg kmol^-1]
         Option = Value
       END
       SPECIFIC HEAT CAPACITY:
         Option = Value
         Specific Heat Capacity = 4181.7 [J kg^-1 K^-1]
         Specific Heat Type = Constant Pressure
       END
       REFERENCE STATE:
         Option = Specified Point
         Reference Pressure = 1 [atm]
         Reference Specific Enthalpy = 0.0 [J/kg]
         Reference Specific Entropy = 0.0 [J/kg/K]
         Reference Temperature = 25 [C]
       END
       DYNAMIC VISCOSITY:
         Dynamic Viscosity = 8.899E-4 [kg m^-1 s^-1]
         Option = Value
       END
       THERMAL CONDUCTIVITY:
         Option = Value
         Thermal Conductivity = 0.6069 [W m^-1 K^-1]
       END
       ABSORPTION COEFFICIENT:
         Absorption Coefficient = 1.0 [m^-1]
         Option = Value
       END
       SCATTERING COEFFICIENT:
         Option = Value
         Scattering Coefficient = 0.0 [m^-1]
       END
       REFRACTIVE INDEX:
         Option = Value
         Refractive Index = 1.0 [m m^-1]
       END
       THERMAL EXPANSIVITY:
         Option = Value
         Thermal Expansivity = 2.57E-04 [K^-1]
       END
     END
   END
 END
 FLOW: Flow Analysis 1
   SOLUTION UNITS:
     Angle Units = [rad]
     Length Units = [m]
     Mass Units = [kg]
     Solid Angle Units = [sr]
     Temperature Units = [K]
     Time Units = [s]
   END
   ANALYSIS TYPE:
     Option = Steady State
     EXTERNAL SOLVER COUPLING:
       Option = None
     END
   END
   DOMAIN: Default Domain
     Coord Frame = Coord 0
     Domain Type = Fluid
     Location = B17
     BOUNDARY: Default Domain Default
       Boundary Type = WALL
       Location = F12.17,F14.17,F16.17,F19.17,F20.17,F21.17
       BOUNDARY CONDITIONS:
         HEAT TRANSFER:
           Option = Adiabatic
         END
         MASS AND MOMENTUM:
           Option = No Slip Wall
         END
         WALL ROUGHNESS:
           Option = Smooth Wall
         END
       END
     END
     BOUNDARY: in1
       Boundary Type = INLET
       Location = in1
       BOUNDARY CONDITIONS:
         FLOW DIRECTION:
           Option = Normal to Boundary Condition
         END
         FLOW REGIME:
           Option = Subsonic
         END
         HEAT TRANSFER:
           Option = Static Temperature
           Static Temperature = 315 [K]
         END
         MASS AND MOMENTUM:
           Mass Flow Rate = inMassFlow
           Mass Flow Rate Area = As Specified
           Option = Mass Flow Rate
         END
         TURBULENCE:
           Option = Medium Intensity and Eddy Viscosity Ratio
         END
       END
     END
     BOUNDARY: in2
       Boundary Type = INLET
       Location = in2
       BOUNDARY CONDITIONS:
         FLOW DIRECTION:
           Option = Normal to Boundary Condition
         END
         FLOW REGIME:
           Option = Subsonic
         END
         HEAT TRANSFER:
           Option = Static Temperature
           Static Temperature = 285 [K]
         END
         MASS AND MOMENTUM:
           Mass Flow Rate = inMassFlow
           Mass Flow Rate Area = As Specified
           Option = Mass Flow Rate
         END
         TURBULENCE:
           Option = Medium Intensity and Eddy Viscosity Ratio
         END
       END
     END
     BOUNDARY: out
       Boundary Type = OUTLET
       Location = out
       BOUNDARY CONDITIONS:
         FLOW REGIME:
           Option = Subsonic
         END
         MASS AND MOMENTUM:
           Option = Static Pressure
           Relative Pressure = 0 [Pa]
         END
       END
     END
     DOMAIN MODELS:
       BUOYANCY MODEL:
         Option = Non Buoyant
       END
       DOMAIN MOTION:
         Option = Stationary
       END
       MESH DEFORMATION:
         Option = None
       END
       REFERENCE PRESSURE:
         Reference Pressure = 1 [atm]
       END
     END
     FLUID DEFINITION: Fluid 1
       Material = Water
       Option = Material Library
       MORPHOLOGY:
         Option = Continuous Fluid
       END
     END
     FLUID MODELS:
       COMBUSTION MODEL:
         Option = None
       END
       HEAT TRANSFER MODEL:
         Option = Thermal Energy
       END
       THERMAL RADIATION MODEL:
         Option = None
       END
       TURBULENCE MODEL:
         Option = k epsilon
       END
       TURBULENT WALL FUNCTIONS:
         Option = Scalable
       END
     END
   END
   OUTPUT CONTROL:
     RESULTS:
       File Compression Level = Default
       Option = Standard
     END
   END
   SOLVER CONTROL:
     Turbulence Numerics = High Resolution
     ADVECTION SCHEME:
       Option = High Resolution
     END
     CONVERGENCE CONTROL:
       Length Scale Option = Conservative
       Maximum Number of Iterations = 100
       Minimum Number of Iterations = 5
       Timescale Control = Auto Timescale
       Timescale Factor = 1.0
     END
     CONVERGENCE CRITERIA:
       Residual Target = 1.E-4
       Residual Type = RMS
     END
     DYNAMIC MODEL CONTROL:
       Global Dynamic Model Control = On
     END
   END
 END
 COMMAND FILE:
   Version = 19.1
   Results Version = 19.1
 END
 PARAMETERIZATION:
   INPUT FIELD: inMassFlow
     Expression Name = inMassFlow
     Method = Expression
   END
 END
 SIMULATION CONTROL:
   EXECUTION CONTROL:
     EXECUTABLE SELECTION:
       Double Precision = No
       Large Problem = No
     END
     INTERPOLATOR STEP CONTROL:
       Runtime Priority = Standard
       MEMORY CONTROL:
         Memory Allocation Factor = 1.0
       END
     END
     PARALLEL HOST LIBRARY:
       HOST DEFINITION: enpclab121
         Remote Host Name = ENPC-LAB121
         Host Architecture String = winnt-amd64
         Installation Root = C:\Program Files\ANSYS Inc\v%v\CFX
       END
     END
     PARTITIONER STEP CONTROL:
       Multidomain Option = Automatic
       Runtime Priority = Standard
       MEMORY CONTROL:
         Memory Allocation Factor = 1.0
       END
       PARTITION SMOOTHING:
         Maximum Partition Smoothing Sweeps = 100
         Option = Smooth
       END
       PARTITIONING TYPE:
         MeTiS Type = k-way
         Option = MeTiS
         Partition Size Rule = Automatic
       END
     END
     RUN DEFINITION:
       Run Mode = Full
       Solver Input File = Fluid Flow CFX.def
       Solver Results File = D:/CFD \
         BackUps/CFD-Static-Mixer/StaticMixerDX_pending/dp14_CFX_Solution/Flui\
         d Flow CFX_005.res
       INITIAL VALUES SPECIFICATION:
         INITIAL VALUES CONTROL:
           Use Mesh From = Solver Input File
           Continue History From = Workbench Initial Values
         END
         INITIAL VALUES: Workbench Initial Values
           Option = Results File
           File Name = Fluid Flow CFX_004.res
         END
       END
     END
     SOLVER STEP CONTROL:
       Runtime Priority = Standard
       MEMORY CONTROL:
         Memory Allocation Factor = 1.0
       END
       PARALLEL ENVIRONMENT:
         Number of Processes = 1
         Start Method = Serial
       END
     END
   END
 END
 
 
 +--------------------------------------------------------------------+
 |                                                                    |
 |                  Interpolation of Initial Values                   |
 |                                                                    |
 +--------------------------------------------------------------------+
 
 


 +--------------------------------------------------------------------+
 |                                                                    |
 |                    ANSYS(R) CFX(R) Interpolator                    |
 |                                                                    |
 | Release 19.1                                                       |
 | Build 19.1 2018-04-17T13:27:50.069000                              |
 | Tue Apr 17 15:02:11 GMTDT 2018                                     |
 |                                                                    |
 |                        Executable Attributes                       |
 |                                                                    |
 |           single-64bit-int32-archfort-optimised-std-lcomp          |
 |                                                                    |
 | (C) 1996-2018 ANSYS, Inc.                                          |
 |                                                                    |
 | All rights reserved. Unauthorized use, distribution or duplication |
 | is prohibited. This product is subject to U.S. laws governing      |
 | export and re-export. For full Legal Notice, see documentation.    |
 +--------------------------------------------------------------------+




 +--------------------------------------------------------------------+
 |                  Job Information at Start of Run                   |
 +--------------------------------------------------------------------+

 Run mode:       serial run

 Host computer:  ENPC-LAB121 (PID:9400)

 Job started:    Mon Dec 10 13:10:34 2018


 +--------------------------------------------------------------------+
 |        Memory Allocated for Run  (Actual usage may be less)        |
 +--------------------------------------------------------------------+

           | Real       | Integer    | Character | Logical  | Double
 ----------+------------+------------+-----------+----------+----------
 Mwords    |       1.62 |       1.93 |      0.20 |     0.01 |     0.08
 Mbytes    |       6.16 |       7.35 |      0.19 |     0.04 |     0.63
 ----------+------------+------------+-----------+----------+----------


 +--------------------------------------------------------------------+
 |                  Host Memory Information (Mbytes)                  |
 +--------------------------------------------------------------------+
 |          Host           |     System     |   Allocated    |   %    |
 +-------------------------+----------------+----------------+--------+
 | ENPC-LAB121             |     16220.89   |        14.38   |   0.09 |
 +-------------------------+----------------+----------------+--------+

 ======================================================================
               Interpolating Onto Domain "Default Domain"
 ======================================================================

 Total Number of Nodes in the Target Domain              =        27393
 Bounding Box Volume of the Target Mesh                  =  9.60000E+01


 Checking all source domains from the source file:
   Target mesh is different from domain "Default Domain".

 Searching for Candidate Source Domains:
   Domain "Default Domain"
     Number of Mapped Nodes                     =        26571 ( 97.0%)
     Bounding Box Overlap Volume                =  9.60000E+01 (100.0%)
   Setting Up Unmapped Nodes:
     Number of Unmapped Nodes                   =          822 (  3.0%)

 Start interpolation of variables: 
   Source Domain Name                                    Mapped Nodes
   Default Domain                                        26571 ( 97.0%)

 +--------------------------------------------------------------------+
 |                     Variable Range Information                     |
 +--------------------------------------------------------------------+
 +--------------------------------------------------------------------+
 |      Variable Name                         |    min    |    max    |
 +--------------------------------------------------------------------+
 | Thermal Conductivity                       |  6.07E-01 |  6.07E-01 |
 | Courant Number                             |  8.62E-01 |  4.26E+01 |
 | Density                                    |  9.97E+02 |  9.97E+02 |
 | Static Enthalpy                            | -5.50E+04 |  7.05E+04 |
 | Static Entropy                             | -1.89E+02 |  2.30E+02 |
 | Pressure                                   | -1.01E+04 |  7.46E+04 |
 | Specific Heat Capacity at Constant Pressure|  4.18E+03 |  4.18E+03 |
 | Specific Heat Capacity at Constant Volume  |  4.18E+03 |  4.18E+03 |
 | Turbulence Eddy Dissipation                |  3.04E-04 |  1.07E+02 |
 | Turbulence Eddy Frequency                  |  6.58E+00 |  1.77E+03 |
 | Temperature                                |  2.85E+02 |  3.15E+02 |
 | Turbulence Kinetic Energy                  |  1.03E-04 |  4.54E+00 |
 | Velocity                                   |  2.17E-01 |  7.37E+00 |
 | Dynamic Viscosity                          |  8.90E-04 |  8.90E-04 |
 | Eddy Viscosity                             |  1.36E-03 |  3.29E+02 |
 +--------------------------------------------------------------------+

 +--------------------------------------------------------------------+
 |                 CPU Requirements of Interpolation                  |
 +--------------------------------------------------------------------+

 Interpolation Step              Time    Percentage
                                (secs.   %total)
 ----------------------------------------------------------------------
 Tree Setup                     3.80E-01    9.6 %
 Interpolation                  1.88E+00   47.2 %
 Unmatched Nodes                1.02E-01    2.6 %
 Miscellaneous                  1.62E+00   40.7 %
                                --------
 Total                          3.97E+00

 +--------------------------------------------------------------------+
 |                   Job Information at End of Run                    |
 +--------------------------------------------------------------------+

 Host computer:  ENPC-LAB121 (PID:9400)

 Job finished:   Mon Dec 10 13:10:38 2018

 Total wall clock time: 3.968E+00 seconds
             or: (          0:         0:         0:     3.968 )
                 (       Days:     Hours:   Minutes:   Seconds )

 
 +--------------------------------------------------------------------+
 |                                                                    |
 |                               Solver                               |
 |                                                                    |
 +--------------------------------------------------------------------+
 



 +--------------------------------------------------------------------+
 |                                                                    |
 |                       ANSYS(R) CFX(R) Solver                       |
 |                                                                    |
 | Release 19.1                                                       |
 | Build 19.1 2018-04-17T13:27:50.069000                              |
 | Tue Apr 17 15:02:11 GMTDT 2018                                     |
 |                                                                    |
 |                        Executable Attributes                       |
 |                                                                    |
 |           single-64bit-int32-archfort-optimised-std-lcomp          |
 |                                                                    |
 | (C) 1996-2018 ANSYS, Inc.                                          |
 |                                                                    |
 | All rights reserved. Unauthorized use, distribution or duplication |
 | is prohibited. This product is subject to U.S. laws governing      |
 | export and re-export. For full Legal Notice, see documentation.    |
 +--------------------------------------------------------------------+




 +--------------------------------------------------------------------+
 |                  Job Information at Start of Run                   |
 +--------------------------------------------------------------------+

 Run mode:       serial run

 Host computer:  ENPC-LAB121 (PID:6512)

 Job started:    Mon Dec 10 13:10:44 2018

 +--------------------------------------------------------------------+
 |                        License Information                         |
 +--------------------------------------------------------------------+
 
 License Cap:    ANSYS CFX Solver (Max 128K Nodes)
 License ID:     VIGO_campus_bath_ac_uk-SYSTEM-1456-2468105


 +--------------------------------------------------------------------+
 |        Memory Allocated for Run  (Actual usage may be less)        |
 +--------------------------------------------------------------------+

           | Real       | Integer    | Character | Logical  | Double
 ----------+------------+------------+-----------+----------+----------
 Mwords    |      17.40 |       4.81 |      7.26 |     0.12 |     0.89
 Mbytes    |      66.39 |      18.33 |      6.93 |     0.46 |     6.82
 ----------+------------+------------+-----------+----------+----------


 +--------------------------------------------------------------------+
 |                  Host Memory Information (Mbytes)                  |
 +--------------------------------------------------------------------+
 |          Host           |     System     |   Allocated    |   %    |
 +-------------------------+----------------+----------------+--------+
 | ENPC-LAB121             |     16220.89   |        98.93   |   0.61 |
 +-------------------------+----------------+----------------+--------+


 +--------------------------------------------------------------------+
 |                     ****** Notice ******                           |
 | The Wall Heat Transfer Coefficient written to the results file for |
 | any turbulent phase with heat transfer is based on the turbulent   |
 | wall function coefficient. It is consistent with the Wall Heat Flux|
 | the wall temperature, and the Wall Adjacent Temperature            |
 | (near-wall temperature).  If you would like it to be based on a    |
 | user-specified bulk temperature instead, please set the expert     |
 | parameter "tbulk for htc = <value>".                               |
 +--------------------------------------------------------------------+

 +--------------------------------------------------------------------+
 |                      Topology Simplification                       |
 +--------------------------------------------------------------------+

 +--------------------------------------------------------------------+
 |                       ****** Warning ******                        |
 |                                                                    |
 | Topology simplification is activated with the following            |
 | restrictions:                                                      |
 |                                                                    |
 | - Mesh regions referenced only within User Fortran and NOT         |
 |   in the command file will cause the solver to stop.               |
 | - The solver will stop during any "Edit Run in Progress" step      |
 |   if new 2D regions are referenced.                                |
 +--------------------------------------------------------------------+

 +--------------------------------------------------------------------+
 |                          Mesh Statistics                           |
 +--------------------------------------------------------------------+
 | Domain Name          | Orthog. Angle | Exp. Factor  | Aspect Ratio |
 +----------------------+---------------+--------------+--------------+
 |                      | Minimum [deg] |   Maximum    |    Maximum   |
 +----------------------+---------------+--------------+--------------+
 | Default Domain       |       30.8 ok |        12 ok |        27 OK |
 +----------------------+---------------+--------------+--------------+
 |                      |  %!  %ok  %OK | %!  %ok  %OK | %!  %ok  %OK |
 +----------------------+---------------+--------------+--------------+
 | Default Domain       |   0    1   99 |  0   <1  100 |  0    0  100 |
 +----------------------+---------------+--------------+--------------+

 Domain Name : Default Domain

     Total Number of Nodes                                =       27393

     Total Number of Elements                             =       98442
         Total Number of Tetrahedrons                     =       71712
         Total Number of Prisms                           =       26730

     Total Number of Faces                                =        7220

 +--------------------------------------------------------------------+
 |      Initial Conditions Supplied by Fields in the Input Files      |
 +--------------------------------------------------------------------+

 Domain Name : Default Domain
     Courant Number
     Eddy Viscosity
     Pressure
     Specific Heat Capacity at Constant Pressure
     Static Enthalpy
     Static Entropy
     Temperature
     Turbulence Eddy Dissipation
     Turbulence Eddy Frequency
     Turbulence Kinetic Energy
     Velocity

 +--------------------------------------------------------------------+
 |                     Average Scale Information                      |
 +--------------------------------------------------------------------+

 Domain Name : Default Domain
     Global Length                                         = 3.2159E+00
     Minimum Extent                                        = 4.0000E+00
     Maximum Extent                                        = 6.0000E+00
     Density                                               = 9.9700E+02
     Dynamic Viscosity                                     = 8.8990E-04
     Velocity                                              = 5.5199E+00
     Advection Time                                        = 5.8260E-01
     Reynolds Number                                       = 1.9887E+07
     Thermal Conductivity                                  = 6.0690E-01
     Specific Heat Capacity at Constant Pressure           = 4.1817E+03
     Prandtl Number                                        = 6.1316E+00
     Temperature Range                                     = 3.0015E+01

 +--------------------------------------------------------------------+
 |                Checking for Isolated Fluid Regions                 |
 +--------------------------------------------------------------------+
 
 No isolated fluid regions were found.

 +--------------------------------------------------------------------+
 |              The Equations Solved in This Calculation              |
 +--------------------------------------------------------------------+

 Subsystem : Momentum and Mass

   U-Mom
   V-Mom
   W-Mom
   P-Mass

 Subsystem : Heat Transfer

   H-Energy

 Subsystem : TurbKE and Diss.K

   K-TurbKE
   E-Diss.K
                   
 CFD Solver started: Mon Dec 10 13:10:47 2018


 +--------------------------------------------------------------------+
 |                       Convergence History                          |
 +--------------------------------------------------------------------+

 ======================================================================
 |                        Timescale Information                       |
 ----------------------------------------------------------------------
 |       Equation       |         Type          |      Timescale      |
 +----------------------+-----------------------+---------------------+
 | U-Mom                | Auto Timescale        |     1.81179E-01     |
 | V-Mom                | Auto Timescale        |     1.81179E-01     |
 | W-Mom                | Auto Timescale        |     1.81179E-01     |
 +----------------------+-----------------------+---------------------+
 | H-Energy             | Auto Timescale        |     1.81179E-01     |
 +----------------------+-----------------------+---------------------+
 | K-TurbKE             | Auto Timescale        |     1.81179E-01     |
 | E-Diss.K             | Auto Timescale        |     1.81179E-01     |
 +----------------------+-----------------------+---------------------+

 ======================================================================
 OUTER LOOP ITERATION =  218 (    1) CPU SECONDS = 2.406E+02 (3.034E+00)
 ----------------------------------------------------------------------
 |       Equation       | Rate | RMS Res | Max Res |  Linear Solution |
 +----------------------+------+---------+---------+------------------+
 | U-Mom                | 0.00 | 2.4E-03 | 4.8E-02 |       4.2E-02  OK|
 | V-Mom                | 0.00 | 2.6E-03 | 7.9E-02 |       3.6E-02  OK|
 | W-Mom                | 0.00 | 1.3E-03 | 2.7E-02 |       2.6E-02  OK|
 | P-Mass               | 0.00 | 1.1E-03 | 3.1E-02 |  9.4  2.8E-02  OK|
 +----------------------+------+---------+---------+------------------+
 | H-Energy             | 0.00 | 4.4E-03 | 1.2E-01 |  5.4  3.7E-02  OK|
 +----------------------+------+---------+---------+------------------+
 | K-TurbKE             | 0.00 | 6.1E-03 | 1.0E-01 |  5.4  4.3E-02  OK|
 | E-Diss.K             | 0.00 | 3.2E-02 | 9.8E-01 |  7.1  5.4E-03  OK|
 +----------------------+------+---------+---------+------------------+

 ======================================================================
 OUTER LOOP ITERATION =  219 (    2) CPU SECONDS = 2.417E+02 (4.195E+00)
 ----------------------------------------------------------------------
 |       Equation       | Rate | RMS Res | Max Res |  Linear Solution |
 +----------------------+------+---------+---------+------------------+
 | U-Mom                | 0.74 | 1.8E-03 | 2.6E-02 |       6.7E-02  OK|
 | V-Mom                | 0.65 | 1.7E-03 | 2.9E-02 |       6.0E-02  OK|
 | W-Mom                | 0.90 | 1.2E-03 | 2.1E-02 |       6.5E-02  OK|
 | P-Mass               | 0.32 | 3.4E-04 | 8.8E-03 |  9.4  6.1E-02  OK|
 +----------------------+------+---------+---------+------------------+
 | H-Energy             | 0.28 | 1.2E-03 | 4.1E-02 |  5.4  6.3E-02  OK|
 +----------------------+------+---------+---------+------------------+
 | K-TurbKE             | 6.50 | 4.0E-02 | 5.2E-01 |  5.4  7.4E-03  OK|
 | E-Diss.K             | 2.74 | 8.7E-02 | 2.3E+00 |  7.2  3.1E-04  OK|
 +----------------------+------+---------+---------+------------------+

 ======================================================================
 OUTER LOOP ITERATION =  220 (    3) CPU SECONDS = 2.428E+02 (5.261E+00)
 ----------------------------------------------------------------------
 |       Equation       | Rate | RMS Res | Max Res |  Linear Solution |
 +----------------------+------+---------+---------+------------------+
 | U-Mom                | 0.61 | 1.1E-03 | 3.5E-02 |       6.3E-02  OK|
 | V-Mom                | 0.53 | 9.0E-04 | 1.9E-02 |       5.8E-02  OK|
 | W-Mom                | 0.51 | 6.0E-04 | 1.4E-02 |       8.2E-02  OK|
 | P-Mass               | 0.84 | 2.8E-04 | 3.8E-03 |  9.4  3.8E-02  OK|
 +----------------------+------+---------+---------+------------------+
 | H-Energy             | 0.78 | 9.5E-04 | 2.8E-02 |  5.4  4.2E-02  OK|
 +----------------------+------+---------+---------+------------------+
 | K-TurbKE             | 0.23 | 9.0E-03 | 1.4E-01 |  5.4  3.2E-02  OK|
 | E-Diss.K             | 0.35 | 3.1E-02 | 8.5E-01 |  7.2  2.7E-03  OK|
 +----------------------+------+---------+---------+------------------+

 ======================================================================
 |                        Timescale Information                       |
 ----------------------------------------------------------------------
 |       Equation       |         Type          |      Timescale      |
 +----------------------+-----------------------+---------------------+
 | U-Mom                | Auto Timescale        |     1.88784E-01     |
 | V-Mom                | Auto Timescale        |     1.88784E-01     |
 | W-Mom                | Auto Timescale        |     1.88784E-01     |
 +----------------------+-----------------------+---------------------+
 | H-Energy             | Auto Timescale        |     1.88784E-01     |
 +----------------------+-----------------------+---------------------+
 | K-TurbKE             | Auto Timescale        |     1.88784E-01     |
 | E-Diss.K             | Auto Timescale        |     1.88784E-01     |
 +----------------------+-----------------------+---------------------+

 ======================================================================
 OUTER LOOP ITERATION =  221 (    4) CPU SECONDS = 2.439E+02 (6.329E+00)
 ----------------------------------------------------------------------
 |       Equation       | Rate | RMS Res | Max Res |  Linear Solution |
 +----------------------+------+---------+---------+------------------+
 | U-Mom                | 0.74 | 7.9E-04 | 2.6E-02 |       3.9E-02  OK|
 | V-Mom                | 0.69 | 6.2E-04 | 1.0E-02 |       3.9E-02  OK|
 | W-Mom                | 0.80 | 4.8E-04 | 1.1E-02 |       4.7E-02  OK|
 | P-Mass               | 0.58 | 1.6E-04 | 2.2E-03 |  9.4  3.9E-02  OK|
 +----------------------+------+---------+---------+------------------+
 | H-Energy             | 0.90 | 8.5E-04 | 2.3E-02 |  5.4  5.0E-02  OK|
 +----------------------+------+---------+---------+------------------+
 | K-TurbKE             | 0.84 | 7.6E-03 | 1.0E-01 |  5.4  3.8E-02  OK|
 | E-Diss.K             | 0.22 | 6.8E-03 | 2.0E-01 |  7.2  7.0E-03  OK|
 +----------------------+------+---------+---------+------------------+

 ======================================================================
 OUTER LOOP ITERATION =  222 (    5) CPU SECONDS = 2.449E+02 (7.356E+00)
 ----------------------------------------------------------------------
 |       Equation       | Rate | RMS Res | Max Res |  Linear Solution |
 +----------------------+------+---------+---------+------------------+
 | U-Mom                | 0.73 | 5.8E-04 | 2.2E-02 |       3.4E-02  OK|
 | V-Mom                | 0.73 | 4.6E-04 | 8.4E-03 |       3.6E-02  OK|
 | W-Mom                | 0.90 | 4.4E-04 | 7.4E-03 |       4.6E-02  OK|
 | P-Mass               | 0.63 | 1.0E-04 | 2.6E-03 |  9.4  3.9E-02  OK|
 +----------------------+------+---------+---------+------------------+
 | H-Energy             | 0.90 | 7.7E-04 | 1.8E-02 |  5.4  5.5E-02  OK|
 +----------------------+------+---------+---------+------------------+
 | K-TurbKE             | 0.74 | 5.6E-03 | 9.2E-02 |  5.4  2.6E-02  OK|
 | E-Diss.K             | 1.05 | 7.2E-03 | 1.1E-01 |  7.2  6.3E-03  OK|
 +----------------------+------+---------+---------+------------------+

 ======================================================================
 OUTER LOOP ITERATION =  223 (    6) CPU SECONDS = 2.459E+02 (8.377E+00)
 ----------------------------------------------------------------------
 |       Equation       | Rate | RMS Res | Max Res |  Linear Solution |
 +----------------------+------+---------+---------+------------------+
 | U-Mom                | 0.75 | 4.3E-04 | 1.6E-02 |       4.7E-02  OK|
 | V-Mom                | 0.82 | 3.8E-04 | 7.5E-03 |       4.7E-02  OK|
 | W-Mom                | 0.72 | 3.1E-04 | 5.0E-03 |       4.8E-02  OK|
 | P-Mass               | 0.65 | 6.6E-05 | 1.5E-03 |  9.4  4.0E-02  OK|
 +----------------------+------+---------+---------+------------------+
 | H-Energy             | 0.89 | 6.8E-04 | 1.7E-02 |  5.4  5.6E-02  OK|
 +----------------------+------+---------+---------+------------------+
 | K-TurbKE             | 0.27 | 1.5E-03 | 2.4E-02 |  5.4  3.4E-02  OK|
 | E-Diss.K             | 0.87 | 6.2E-03 | 2.2E-01 |  7.2  4.5E-03  OK|
 +----------------------+------+---------+---------+------------------+

 ======================================================================
 OUTER LOOP ITERATION =  224 (    7) CPU SECONDS = 2.470E+02 (9.419E+00)
 ----------------------------------------------------------------------
 |       Equation       | Rate | RMS Res | Max Res |  Linear Solution |
 +----------------------+------+---------+---------+------------------+
 | U-Mom                | 0.74 | 3.2E-04 | 1.0E-02 |       8.1E-02  OK|
 | V-Mom                | 0.84 | 3.2E-04 | 6.9E-03 |       7.5E-02  OK|
 | W-Mom                | 0.62 | 1.9E-04 | 4.7E-03 |       5.9E-02  OK|
 | P-Mass               | 0.82 | 5.4E-05 | 9.0E-04 |  9.4  6.4E-02  OK|
 +----------------------+------+---------+---------+------------------+
 | H-Energy             | 0.88 | 6.0E-04 | 1.4E-02 |  5.4  5.5E-02  OK|
 +----------------------+------+---------+---------+------------------+
 | K-TurbKE             | 0.88 | 1.3E-03 | 2.2E-02 |  5.4  5.4E-02  OK|
 | E-Diss.K             | 0.42 | 2.6E-03 | 5.9E-02 |  7.2  5.9E-03  OK|
 +----------------------+------+---------+---------+------------------+

 ======================================================================
 OUTER LOOP ITERATION =  225 (    8) CPU SECONDS = 2.480E+02 (1.045E+01)
 ----------------------------------------------------------------------
 |       Equation       | Rate | RMS Res | Max Res |  Linear Solution |
 +----------------------+------+---------+---------+------------------+
 | U-Mom                | 0.81 | 2.6E-04 | 7.2E-03 |       9.1E-02  OK|
 | V-Mom                | 0.92 | 2.9E-04 | 6.9E-03 |       8.3E-02  OK|
 | W-Mom                | 0.91 | 1.8E-04 | 4.3E-03 |       7.7E-02  OK|
 | P-Mass               | 0.96 | 5.2E-05 | 7.5E-04 |  9.4  7.8E-02  OK|
 +----------------------+------+---------+---------+------------------+
 | H-Energy             | 0.87 | 5.2E-04 | 7.2E-03 |  5.4  5.2E-02  OK|
 +----------------------+------+---------+---------+------------------+
 | K-TurbKE             | 0.62 | 8.3E-04 | 1.1E-02 |  5.4  5.7E-02  OK|
 | E-Diss.K             | 0.82 | 2.1E-03 | 5.8E-02 |  7.2  7.4E-03  OK|
 +----------------------+------+---------+---------+------------------+

 ======================================================================
 |                        Timescale Information                       |
 ----------------------------------------------------------------------
 |       Equation       |         Type          |      Timescale      |
 +----------------------+-----------------------+---------------------+
 | U-Mom                | Auto Timescale        |     1.89812E-01     |
 | V-Mom                | Auto Timescale        |     1.89812E-01     |
 | W-Mom                | Auto Timescale        |     1.89812E-01     |
 +----------------------+-----------------------+---------------------+
 | H-Energy             | Auto Timescale        |     1.89812E-01     |
 +----------------------+-----------------------+---------------------+
 | K-TurbKE             | Auto Timescale        |     1.89812E-01     |
 | E-Diss.K             | Auto Timescale        |     1.89812E-01     |
 +----------------------+-----------------------+---------------------+

 ======================================================================
 OUTER LOOP ITERATION =  226 (    9) CPU SECONDS = 2.490E+02 (1.150E+01)
 ----------------------------------------------------------------------
 |       Equation       | Rate | RMS Res | Max Res |  Linear Solution |
 +----------------------+------+---------+---------+------------------+
 | U-Mom                | 0.84 | 2.2E-04 | 5.3E-03 |       9.3E-02  OK|
 | V-Mom                | 0.92 | 2.7E-04 | 6.6E-03 |       8.3E-02  OK|
 | W-Mom                | 0.93 | 1.7E-04 | 4.1E-03 |       9.0E-02  OK|
 | P-Mass               | 1.05 | 5.4E-05 | 6.9E-04 |  9.4  8.6E-02  OK|
 +----------------------+------+---------+---------+------------------+
 | H-Energy             | 0.87 | 4.5E-04 | 6.1E-03 |  5.4  5.3E-02  OK|
 +----------------------+------+---------+---------+------------------+
 | K-TurbKE             | 0.60 | 5.0E-04 | 8.1E-03 |  5.4  6.4E-02  OK|
 | E-Diss.K             | 0.32 | 6.9E-04 | 1.1E-02 |  7.2  8.7E-03  OK|
 +----------------------+------+---------+---------+------------------+

 ======================================================================
 OUTER LOOP ITERATION =  227 (   10) CPU SECONDS = 2.501E+02 (1.252E+01)
 ----------------------------------------------------------------------
 |       Equation       | Rate | RMS Res | Max Res |  Linear Solution |
 +----------------------+------+---------+---------+------------------+
 | U-Mom                | 0.88 | 1.9E-04 | 3.5E-03 |       9.6E-02  OK|
 | V-Mom                | 0.93 | 2.5E-04 | 6.3E-03 |       8.5E-02  OK|
 | W-Mom                | 0.94 | 1.5E-04 | 4.1E-03 |       1.0E-01  ok|
 | P-Mass               | 0.95 | 5.2E-05 | 6.0E-04 |  9.4  9.8E-02  OK|
 +----------------------+------+---------+---------+------------------+
 | H-Energy             | 0.88 | 3.9E-04 | 6.1E-03 |  5.4  5.3E-02  OK|
 +----------------------+------+---------+---------+------------------+
 | K-TurbKE             | 0.86 | 4.3E-04 | 7.0E-03 |  5.4  6.6E-02  OK|
 | E-Diss.K             | 0.95 | 6.5E-04 | 2.3E-02 |  7.2  1.3E-02  OK|
 +----------------------+------+---------+---------+------------------+

 ======================================================================
 OUTER LOOP ITERATION =  228 (   11) CPU SECONDS = 2.512E+02 (1.362E+01)
 ----------------------------------------------------------------------
 |       Equation       | Rate | RMS Res | Max Res |  Linear Solution |
 +----------------------+------+---------+---------+------------------+
 | U-Mom                | 0.91 | 1.7E-04 | 3.9E-03 |       3.6E-02  OK|
 | V-Mom                | 0.93 | 2.3E-04 | 6.0E-03 |       3.2E-02  OK|
 | W-Mom                | 0.94 | 1.5E-04 | 4.0E-03 |       6.1E-02  OK|
 | P-Mass               | 0.95 | 4.9E-05 | 5.2E-04 | 13.5  3.8E-02  OK|
 +----------------------+------+---------+---------+------------------+
 | H-Energy             | 0.89 | 3.5E-04 | 6.0E-03 |  5.4  5.3E-02  OK|
 +----------------------+------+---------+---------+------------------+
 | K-TurbKE             | 0.96 | 4.1E-04 | 6.5E-03 |  5.4  6.0E-02  OK|
 | E-Diss.K             | 1.51 | 9.8E-04 | 2.9E-02 |  7.2  9.5E-03  OK|
 +----------------------+------+---------+---------+------------------+

 ======================================================================
 OUTER LOOP ITERATION =  229 (   12) CPU SECONDS = 2.522E+02 (1.469E+01)
 ----------------------------------------------------------------------
 |       Equation       | Rate | RMS Res | Max Res |  Linear Solution |
 +----------------------+------+---------+---------+------------------+
 | U-Mom                | 0.93 | 1.6E-04 | 4.5E-03 |       3.3E-02  OK|
 | V-Mom                | 0.92 | 2.1E-04 | 5.6E-03 |       2.9E-02  OK|
 | W-Mom                | 0.93 | 1.4E-04 | 3.9E-03 |       5.2E-02  OK|
 | P-Mass               | 1.01 | 4.9E-05 | 5.2E-04 | 13.5  3.4E-02  OK|
 +----------------------+------+---------+---------+------------------+
 | H-Energy             | 0.88 | 3.1E-04 | 5.1E-03 |  5.4  5.2E-02  OK|
 +----------------------+------+---------+---------+------------------+
 | K-TurbKE             | 0.96 | 3.9E-04 | 5.7E-03 |  5.4  5.8E-02  OK|
 | E-Diss.K             | 0.86 | 8.5E-04 | 2.3E-02 |  7.2  1.1E-02  OK|
 +----------------------+------+---------+---------+------------------+

 ======================================================================
 OUTER LOOP ITERATION =  230 (   13) CPU SECONDS = 2.533E+02 (1.579E+01)
 ----------------------------------------------------------------------
 |       Equation       | Rate | RMS Res | Max Res |  Linear Solution |
 +----------------------+------+---------+---------+------------------+
 | U-Mom                | 0.95 | 1.5E-04 | 5.0E-03 |       3.2E-02  OK|
 | V-Mom                | 0.93 | 2.0E-04 | 5.3E-03 |       2.9E-02  OK|
 | W-Mom                | 0.92 | 1.3E-04 | 3.9E-03 |       5.6E-02  OK|
 | P-Mass               | 0.91 | 4.5E-05 | 4.5E-04 | 13.5  3.6E-02  OK|
 +----------------------+------+---------+---------+------------------+
 | H-Energy             | 0.88 | 2.7E-04 | 4.1E-03 |  5.4  5.2E-02  OK|
 +----------------------+------+---------+---------+------------------+
 | K-TurbKE             | 0.98 | 3.9E-04 | 3.9E-03 |  5.4  5.6E-02  OK|
 | E-Diss.K             | 0.89 | 7.5E-04 | 2.0E-02 |  7.2  1.2E-02  OK|
 +----------------------+------+---------+---------+------------------+

 ======================================================================
 |                        Timescale Information                       |
 ----------------------------------------------------------------------
 |       Equation       |         Type          |      Timescale      |
 +----------------------+-----------------------+---------------------+
 | U-Mom                | Auto Timescale        |     1.86785E-01     |
 | V-Mom                | Auto Timescale        |     1.86785E-01     |
 | W-Mom                | Auto Timescale        |     1.86785E-01     |
 +----------------------+-----------------------+---------------------+
 | H-Energy             | Auto Timescale        |     1.86785E-01     |
 +----------------------+-----------------------+---------------------+
 | K-TurbKE             | Auto Timescale        |     1.86785E-01     |
 | E-Diss.K             | Auto Timescale        |     1.86785E-01     |
 +----------------------+-----------------------+---------------------+

 ======================================================================
 OUTER LOOP ITERATION =  231 (   14) CPU SECONDS = 2.544E+02 (1.682E+01)
 ----------------------------------------------------------------------
 |       Equation       | Rate | RMS Res | Max Res |  Linear Solution |
 +----------------------+------+---------+---------+------------------+
 | U-Mom                | 0.96 | 1.5E-04 | 5.6E-03 |       3.2E-02  OK|
 | V-Mom                | 0.93 | 1.9E-04 | 5.1E-03 |       2.8E-02  OK|
 | W-Mom                | 0.91 | 1.1E-04 | 3.8E-03 |       6.1E-02  OK|
 | P-Mass               | 0.92 | 4.1E-05 | 4.0E-04 | 13.5  3.7E-02  OK|
 +----------------------+------+---------+---------+------------------+
 | H-Energy             | 0.88 | 2.4E-04 | 3.3E-03 |  5.4  5.2E-02  OK|
 +----------------------+------+---------+---------+------------------+
 | K-TurbKE             | 1.00 | 3.9E-04 | 3.7E-03 |  5.4  5.4E-02  OK|
 | E-Diss.K             | 0.97 | 7.3E-04 | 1.9E-02 |  7.2  1.2E-02  OK|
 +----------------------+------+---------+---------+------------------+

 ======================================================================
 OUTER LOOP ITERATION =  232 (   15) CPU SECONDS = 2.554E+02 (1.787E+01)
 ----------------------------------------------------------------------
 |       Equation       | Rate | RMS Res | Max Res |  Linear Solution |
 +----------------------+------+---------+---------+------------------+
 | U-Mom                | 0.97 | 1.4E-04 | 6.8E-03 |       3.2E-02  OK|
 | V-Mom                | 0.94 | 1.7E-04 | 5.6E-03 |       2.8E-02  OK|
 | W-Mom                | 0.91 | 1.0E-04 | 3.7E-03 |       6.7E-02  OK|
 | P-Mass               | 0.93 | 3.8E-05 | 3.6E-04 | 13.5  3.8E-02  OK|
 +----------------------+------+---------+---------+------------------+
 | H-Energy             | 0.88 | 2.1E-04 | 3.1E-03 |  5.4  5.1E-02  OK|
 +----------------------+------+---------+---------+------------------+
 | K-TurbKE             | 1.00 | 3.9E-04 | 3.2E-03 |  5.4  5.2E-02  OK|
 | E-Diss.K             | 0.94 | 6.9E-04 | 1.7E-02 |  7.2  1.2E-02  OK|
 +----------------------+------+---------+---------+------------------+

 ======================================================================
 OUTER LOOP ITERATION =  233 (   16) CPU SECONDS = 2.565E+02 (1.894E+01)
 ----------------------------------------------------------------------
 |       Equation       | Rate | RMS Res | Max Res |  Linear Solution |
 +----------------------+------+---------+---------+------------------+
 | U-Mom                | 0.98 | 1.4E-04 | 7.7E-03 |       3.2E-02  OK|
 | V-Mom                | 0.94 | 1.6E-04 | 6.2E-03 |       2.9E-02  OK|
 | W-Mom                | 0.91 | 9.5E-05 | 3.5E-03 |       7.3E-02  OK|
 | P-Mass               | 0.93 | 3.5E-05 | 3.2E-04 | 13.5  3.9E-02  OK|
 +----------------------+------+---------+---------+------------------+
 | H-Energy             | 0.89 | 1.9E-04 | 2.9E-03 |  5.4  5.2E-02  OK|
 +----------------------+------+---------+---------+------------------+
 | K-TurbKE             | 1.00 | 3.8E-04 | 2.5E-03 |  5.4  5.2E-02  OK|
 | E-Diss.K             | 0.94 | 6.5E-04 | 1.5E-02 |  7.2  1.3E-02  OK|
 +----------------------+------+---------+---------+------------------+

 ======================================================================
 OUTER LOOP ITERATION =  234 (   17) CPU SECONDS = 2.575E+02 (1.997E+01)
 ----------------------------------------------------------------------
 |       Equation       | Rate | RMS Res | Max Res |  Linear Solution |
 +----------------------+------+---------+---------+------------------+
 | U-Mom                | 0.98 | 1.4E-04 | 8.4E-03 |       3.2E-02  OK|
 | V-Mom                | 0.95 | 1.5E-04 | 6.7E-03 |       2.9E-02  OK|
 | W-Mom                | 0.90 | 8.6E-05 | 3.3E-03 |       8.0E-02  OK|
 | P-Mass               | 0.93 | 3.3E-05 | 2.9E-04 | 13.5  4.0E-02  OK|
 +----------------------+------+---------+---------+------------------+
 | H-Energy             | 0.91 | 1.7E-04 | 2.6E-03 |  5.4  5.3E-02  OK|
 +----------------------+------+---------+---------+------------------+
 | K-TurbKE             | 0.99 | 3.8E-04 | 2.2E-03 |  5.4  5.1E-02  OK|
 | E-Diss.K             | 0.95 | 6.1E-04 | 1.4E-02 |  7.2  1.3E-02  OK|
 +----------------------+------+---------+---------+------------------+

 ======================================================================
 OUTER LOOP ITERATION =  235 (   18) CPU SECONDS = 2.586E+02 (2.105E+01)
 ----------------------------------------------------------------------
 |       Equation       | Rate | RMS Res | Max Res |  Linear Solution |
 +----------------------+------+---------+---------+------------------+
 | U-Mom                | 0.98 | 1.3E-04 | 8.8E-03 |       3.2E-02  OK|
 | V-Mom                | 0.95 | 1.5E-04 | 7.0E-03 |       2.9E-02  OK|
 | W-Mom                | 0.91 | 7.8E-05 | 3.1E-03 |       8.6E-02  OK|
 | P-Mass               | 0.94 | 3.1E-05 | 2.6E-04 | 13.5  4.1E-02  OK|
 +----------------------+------+---------+---------+------------------+
 | H-Energy             | 0.92 | 1.6E-04 | 2.3E-03 |  5.4  5.6E-02  OK|
 +----------------------+------+---------+---------+------------------+
 | K-TurbKE             | 0.99 | 3.8E-04 | 2.0E-03 |  5.4  5.1E-02  OK|
 | E-Diss.K             | 0.95 | 5.8E-04 | 1.3E-02 |  7.2  1.4E-02  OK|
 +----------------------+------+---------+---------+------------------+

 ======================================================================
 |                        Timescale Information                       |
 ----------------------------------------------------------------------
 |       Equation       |         Type          |      Timescale      |
 +----------------------+-----------------------+---------------------+
 | U-Mom                | Auto Timescale        |     1.83221E-01     |
 | V-Mom                | Auto Timescale        |     1.83221E-01     |
 | W-Mom                | Auto Timescale        |     1.83221E-01     |
 +----------------------+-----------------------+---------------------+
 | H-Energy             | Auto Timescale        |     1.83221E-01     |
 +----------------------+-----------------------+---------------------+
 | K-TurbKE             | Auto Timescale        |     1.83221E-01     |
 | E-Diss.K             | Auto Timescale        |     1.83221E-01     |
 +----------------------+-----------------------+---------------------+

 ======================================================================
 OUTER LOOP ITERATION =  236 (   19) CPU SECONDS = 2.597E+02 (2.212E+01)
 ----------------------------------------------------------------------
 |       Equation       | Rate | RMS Res | Max Res |  Linear Solution |
 +----------------------+------+---------+---------+------------------+
 | U-Mom                | 0.97 | 1.3E-04 | 8.9E-03 |       3.1E-02  OK|
 | V-Mom                | 0.96 | 1.4E-04 | 7.1E-03 |       2.9E-02  OK|
 | W-Mom                | 0.92 | 7.2E-05 | 3.1E-03 |       9.1E-02  OK|
 | P-Mass               | 0.94 | 2.9E-05 | 2.4E-04 | 13.5  4.1E-02  OK|
 +----------------------+------+---------+---------+------------------+
 | H-Energy             | 0.93 | 1.5E-04 | 2.4E-03 |  5.4  5.9E-02  OK|
 +----------------------+------+---------+---------+------------------+
 | K-TurbKE             | 0.98 | 3.7E-04 | 2.0E-03 |  5.4  4.9E-02  OK|
 | E-Diss.K             | 0.94 | 5.5E-04 | 1.2E-02 |  7.2  1.4E-02  OK|
 +----------------------+------+---------+---------+------------------+

 ======================================================================
 OUTER LOOP ITERATION =  237 (   20) CPU SECONDS = 2.608E+02 (2.327E+01)
 ----------------------------------------------------------------------
 |       Equation       | Rate | RMS Res | Max Res |  Linear Solution |
 +----------------------+------+---------+---------+------------------+
 | U-Mom                | 0.97 | 1.3E-04 | 8.9E-03 |       3.1E-02  OK|
 | V-Mom                | 0.96 | 1.4E-04 | 7.2E-03 |       2.9E-02  OK|
 | W-Mom                | 0.94 | 6.7E-05 | 3.1E-03 |       9.6E-02  OK|
 | P-Mass               | 0.94 | 2.7E-05 | 2.2E-04 | 13.5  4.2E-02  OK|
 +----------------------+------+---------+---------+------------------+
 | H-Energy             | 0.94 | 1.4E-04 | 2.4E-03 |  5.4  6.2E-02  OK|
 +----------------------+------+---------+---------+------------------+
 | K-TurbKE             | 0.98 | 3.6E-04 | 2.0E-03 |  5.4  4.9E-02  OK|
 | E-Diss.K             | 0.95 | 5.2E-04 | 1.1E-02 |  7.2  1.4E-02  OK|
 +----------------------+------+---------+---------+------------------+

 ======================================================================
 OUTER LOOP ITERATION =  238 (   21) CPU SECONDS = 2.620E+02 (2.444E+01)
 ----------------------------------------------------------------------
 |       Equation       | Rate | RMS Res | Max Res |  Linear Solution |
 +----------------------+------+---------+---------+------------------+
 | U-Mom                | 0.98 | 1.2E-04 | 8.9E-03 |       3.1E-02  OK|
 | V-Mom                | 0.97 | 1.3E-04 | 7.2E-03 |       3.0E-02  OK|
 | W-Mom                | 0.95 | 6.4E-05 | 3.1E-03 |       1.0E-01  ok|
 | P-Mass               | 0.94 | 2.6E-05 | 2.0E-04 | 13.5  4.3E-02  OK|
 +----------------------+------+---------+---------+------------------+
 | H-Energy             | 0.95 | 1.3E-04 | 2.4E-03 |  5.4  6.5E-02  OK|
 +----------------------+------+---------+---------+------------------+
 | K-TurbKE             | 0.97 | 3.5E-04 | 2.0E-03 |  5.4  4.9E-02  OK|
 | E-Diss.K             | 0.95 | 4.9E-04 | 1.0E-02 |  7.2  1.4E-02  OK|
 +----------------------+------+---------+---------+------------------+

 ======================================================================
 OUTER LOOP ITERATION =  239 (   22) CPU SECONDS = 2.631E+02 (2.557E+01)
 ----------------------------------------------------------------------
 |       Equation       | Rate | RMS Res | Max Res |  Linear Solution |
 +----------------------+------+---------+---------+------------------+
 | U-Mom                | 0.97 | 1.2E-04 | 8.6E-03 |       3.1E-02  OK|
 | V-Mom                | 0.97 | 1.3E-04 | 7.2E-03 |       3.0E-02  OK|
 | W-Mom                | 0.97 | 6.2E-05 | 3.1E-03 |       1.0E-01  ok|
 | P-Mass               | 0.95 | 2.4E-05 | 1.9E-04 | 13.5  4.4E-02  OK|
 +----------------------+------+---------+---------+------------------+
 | H-Energy             | 0.95 | 1.3E-04 | 2.4E-03 |  5.4  6.7E-02  OK|
 +----------------------+------+---------+---------+------------------+
 | K-TurbKE             | 0.97 | 3.4E-04 | 1.9E-03 |  5.4  4.9E-02  OK|
 | E-Diss.K             | 0.94 | 4.6E-04 | 9.6E-03 |  7.2  1.5E-02  OK|
 +----------------------+------+---------+---------+------------------+

 ======================================================================
 OUTER LOOP ITERATION =  240 (   23) CPU SECONDS = 2.642E+02 (2.668E+01)
 ----------------------------------------------------------------------
 |       Equation       | Rate | RMS Res | Max Res |  Linear Solution |
 +----------------------+------+---------+---------+------------------+
 | U-Mom                | 0.97 | 1.2E-04 | 8.1E-03 |       3.1E-02  OK|
 | V-Mom                | 0.97 | 1.3E-04 | 7.2E-03 |       3.0E-02  OK|
 | W-Mom                | 0.98 | 6.1E-05 | 3.0E-03 |       1.1E-01  ok|
 | P-Mass               | 0.95 | 2.3E-05 | 1.9E-04 | 13.5  4.5E-02  OK|
 +----------------------+------+---------+---------+------------------+
 | H-Energy             | 0.95 | 1.2E-04 | 2.3E-03 |  5.4  6.9E-02  OK|
 +----------------------+------+---------+---------+------------------+
 | K-TurbKE             | 0.96 | 3.3E-04 | 1.9E-03 |  5.4  4.9E-02  OK|
 | E-Diss.K             | 0.94 | 4.3E-04 | 8.8E-03 |  7.2  1.5E-02  OK|
 +----------------------+------+---------+---------+------------------+

 ======================================================================
 |                        Timescale Information                       |
 ----------------------------------------------------------------------
 |       Equation       |         Type          |      Timescale      |
 +----------------------+-----------------------+---------------------+
 | U-Mom                | Auto Timescale        |     1.79872E-01     |
 | V-Mom                | Auto Timescale        |     1.79872E-01     |
 | W-Mom                | Auto Timescale        |     1.79872E-01     |
 +----------------------+-----------------------+---------------------+
 | H-Energy             | Auto Timescale        |     1.79872E-01     |
 +----------------------+-----------------------+---------------------+
 | K-TurbKE             | Auto Timescale        |     1.79872E-01     |
 | E-Diss.K             | Auto Timescale        |     1.79872E-01     |
 +----------------------+-----------------------+---------------------+

 ======================================================================
 OUTER LOOP ITERATION =  241 (   24) CPU SECONDS = 2.653E+02 (2.779E+01)
 ----------------------------------------------------------------------
 |       Equation       | Rate | RMS Res | Max Res |  Linear Solution |
 +----------------------+------+---------+---------+------------------+
 | U-Mom                | 0.97 | 1.1E-04 | 7.7E-03 |       3.0E-02  OK|
 | V-Mom                | 0.96 | 1.2E-04 | 7.1E-03 |       2.9E-02  OK|
 | W-Mom                | 0.97 | 5.9E-05 | 2.5E-03 |       1.1E-01  ok|
 | P-Mass               | 0.95 | 2.2E-05 | 1.9E-04 | 13.5  4.5E-02  OK|
 +----------------------+------+---------+---------+------------------+
 | H-Energy             | 0.95 | 1.1E-04 | 2.1E-03 |  5.4  6.8E-02  OK|
 +----------------------+------+---------+---------+------------------+
 | K-TurbKE             | 0.96 | 3.1E-04 | 1.8E-03 |  5.4  4.8E-02  OK|
 | E-Diss.K             | 0.93 | 4.0E-04 | 7.9E-03 |  7.2  1.5E-02  OK|
 +----------------------+------+---------+---------+------------------+

 ======================================================================
 OUTER LOOP ITERATION =  242 (   25) CPU SECONDS = 2.664E+02 (2.889E+01)
 ----------------------------------------------------------------------
 |       Equation       | Rate | RMS Res | Max Res |  Linear Solution |
 +----------------------+------+---------+---------+------------------+
 | U-Mom                | 0.96 | 1.1E-04 | 7.5E-03 |       3.0E-02  OK|
 | V-Mom                | 0.96 | 1.2E-04 | 7.1E-03 |       2.9E-02  OK|
 | W-Mom                | 0.98 | 5.8E-05 | 2.6E-03 |       1.1E-01  ok|
 | P-Mass               | 0.95 | 2.1E-05 | 1.9E-04 | 13.5  4.6E-02  OK|
 +----------------------+------+---------+---------+------------------+
 | H-Energy             | 0.96 | 1.1E-04 | 2.0E-03 |  5.4  6.7E-02  OK|
 +----------------------+------+---------+---------+------------------+
 | K-TurbKE             | 0.95 | 3.0E-04 | 1.8E-03 |  5.4  4.8E-02  OK|
 | E-Diss.K             | 0.94 | 3.8E-04 | 7.3E-03 |  7.2  1.5E-02  OK|
 +----------------------+------+---------+---------+------------------+

 ======================================================================
 OUTER LOOP ITERATION =  243 (   26) CPU SECONDS = 2.676E+02 (3.006E+01)
 ----------------------------------------------------------------------
 |       Equation       | Rate | RMS Res | Max Res |  Linear Solution |
 +----------------------+------+---------+---------+------------------+
 | U-Mom                | 0.97 | 1.0E-04 | 7.4E-03 |       3.0E-02  OK|
 | V-Mom                | 0.97 | 1.1E-04 | 7.2E-03 |       2.9E-02  OK|
 | W-Mom                | 0.98 | 5.7E-05 | 2.7E-03 |       1.1E-01  ok|
 | P-Mass               | 0.95 | 2.0E-05 | 1.9E-04 | 13.5  4.7E-02  OK|
 +----------------------+------+---------+---------+------------------+
 | H-Energy             | 0.97 | 1.1E-04 | 1.8E-03 |  5.4  6.6E-02  OK|
 +----------------------+------+---------+---------+------------------+
 | K-TurbKE             | 0.95 | 2.8E-04 | 2.1E-03 |  5.4  4.9E-02  OK|
 | E-Diss.K             | 0.94 | 3.6E-04 | 6.9E-03 |  7.2  1.5E-02  OK|
 +----------------------+------+---------+---------+------------------+

 ======================================================================
 OUTER LOOP ITERATION =  244 (   27) CPU SECONDS = 2.687E+02 (3.115E+01)
 ----------------------------------------------------------------------
 |       Equation       | Rate | RMS Res | Max Res |  Linear Solution |
 +----------------------+------+---------+---------+------------------+
 | U-Mom                | 0.97 | 1.0E-04 | 7.4E-03 |       2.9E-02  OK|
 | V-Mom                | 0.97 | 1.1E-04 | 7.4E-03 |       2.9E-02  OK|
 | W-Mom                | 0.98 | 5.5E-05 | 2.8E-03 |       1.1E-01  ok|
 | P-Mass               | 0.96 | 1.9E-05 | 1.8E-04 | 13.5  4.8E-02  OK|
 +----------------------+------+---------+---------+------------------+
 | H-Energy             | 0.98 | 1.0E-04 | 1.5E-03 |  5.4  6.7E-02  OK|
 +----------------------+------+---------+---------+------------------+
 | K-TurbKE             | 0.95 | 2.7E-04 | 2.3E-03 |  5.4  4.9E-02  OK|
 | E-Diss.K             | 0.94 | 3.3E-04 | 6.4E-03 |  7.2  1.5E-02  OK|
 +----------------------+------+---------+---------+------------------+

 ======================================================================
 OUTER LOOP ITERATION =  245 (   28) CPU SECONDS = 2.698E+02 (3.221E+01)
 ----------------------------------------------------------------------
 |       Equation       | Rate | RMS Res | Max Res |  Linear Solution |
 +----------------------+------+---------+---------+------------------+
 | U-Mom                | 0.98 | 1.0E-04 | 7.5E-03 |       2.9E-02  OK|
 | V-Mom                | 0.98 | 1.1E-04 | 7.6E-03 |       2.9E-02  OK|
 | W-Mom                | 0.98 | 5.5E-05 | 3.0E-03 |       1.1E-01  ok|
 | P-Mass               | 0.97 | 1.8E-05 | 1.9E-04 | 13.5  4.8E-02  OK|
 +----------------------+------+---------+---------+------------------+
 | H-Energy             | 0.99 | 1.0E-04 | 1.3E-03 |  5.4  6.5E-02  OK|
 +----------------------+------+---------+---------+------------------+
 | K-TurbKE             | 0.95 | 2.5E-04 | 2.4E-03 |  5.4  4.9E-02  OK|
 | E-Diss.K             | 0.94 | 3.1E-04 | 5.9E-03 |  7.2  1.5E-02  OK|
 +----------------------+------+---------+---------+------------------+

 ======================================================================
 |                        Timescale Information                       |
 ----------------------------------------------------------------------
 |       Equation       |         Type          |      Timescale      |
 +----------------------+-----------------------+---------------------+
 | U-Mom                | Auto Timescale        |     1.76846E-01     |
 | V-Mom                | Auto Timescale        |     1.76846E-01     |
 | W-Mom                | Auto Timescale        |     1.76846E-01     |
 +----------------------+-----------------------+---------------------+
 | H-Energy             | Auto Timescale        |     1.76846E-01     |
 +----------------------+-----------------------+---------------------+
 | K-TurbKE             | Auto Timescale        |     1.76846E-01     |
 | E-Diss.K             | Auto Timescale        |     1.76846E-01     |
 +----------------------+-----------------------+---------------------+

 ======================================================================
 OUTER LOOP ITERATION =  246 (   29) CPU SECONDS = 2.708E+02 (3.329E+01)
 ----------------------------------------------------------------------
 |       Equation       | Rate | RMS Res | Max Res |  Linear Solution |
 +----------------------+------+---------+---------+------------------+
 | U-Mom                | 0.98 | 9.8E-05 | 7.5E-03 |       2.8E-02  OK|
 | V-Mom                | 0.97 | 1.0E-04 | 7.6E-03 |       2.8E-02  OK|
 | W-Mom                | 0.99 | 5.4E-05 | 3.3E-03 |       1.1E-01  ok|
 | P-Mass               | 0.97 | 1.8E-05 | 1.9E-04 | 13.5  4.8E-02  OK|
 +----------------------+------+---------+---------+------------------+
 | H-Energy             | 0.99 | 1.0E-04 | 1.4E-03 |  5.4  6.3E-02  OK|
 +----------------------+------+---------+---------+------------------+
 | K-TurbKE             | 0.94 | 2.4E-04 | 2.4E-03 |  5.4  4.8E-02  OK|
 | E-Diss.K             | 0.93 | 2.9E-04 | 5.5E-03 |  7.2  1.5E-02  OK|
 +----------------------+------+---------+---------+------------------+

 ======================================================================
 OUTER LOOP ITERATION =  247 (   30) CPU SECONDS = 2.719E+02 (3.434E+01)
 ----------------------------------------------------------------------
 |       Equation       | Rate | RMS Res | Max Res |  Linear Solution |
 +----------------------+------+---------+---------+------------------+
 | U-Mom                | 0.98 | 9.6E-05 | 7.5E-03 |       2.8E-02  OK|
 | V-Mom                | 0.98 | 1.0E-04 | 7.6E-03 |       2.8E-02  OK|
 | W-Mom                | 0.99 | 5.4E-05 | 3.6E-03 |       1.1E-01  ok|
 | P-Mass               | 0.97 | 1.7E-05 | 1.9E-04 | 13.5  4.8E-02  OK|
 +----------------------+------+---------+---------+------------------+
 | H-Energy             | 0.99 | 1.0E-04 | 1.4E-03 |  5.4  6.1E-02  OK|
 +----------------------+------+---------+---------+------------------+
 | K-TurbKE             | 0.94 | 2.3E-04 | 2.3E-03 |  5.4  4.8E-02  OK|
 | E-Diss.K             | 0.94 | 2.8E-04 | 5.1E-03 |  7.2  1.5E-02  OK|
 +----------------------+------+---------+---------+------------------+

 ======================================================================
 OUTER LOOP ITERATION =  248 (   31) CPU SECONDS = 2.730E+02 (3.541E+01)
 ----------------------------------------------------------------------
 |       Equation       | Rate | RMS Res | Max Res |  Linear Solution |
 +----------------------+------+---------+---------+------------------+
 | U-Mom                | 0.99 | 9.5E-05 | 7.6E-03 |       2.8E-02  OK|
 | V-Mom                | 0.98 | 1.0E-04 | 7.8E-03 |       2.8E-02  OK|
 | W-Mom                | 1.00 | 5.4E-05 | 3.9E-03 |       1.1E-01  ok|
 | P-Mass               | 0.97 | 1.7E-05 | 1.8E-04 | 13.5  4.9E-02  OK|
 +----------------------+------+---------+---------+------------------+
 | H-Energy             | 0.99 | 1.0E-04 | 1.5E-03 |  5.4  6.0E-02  OK|
 +----------------------+------+---------+---------+------------------+
 | K-TurbKE             | 0.94 | 2.1E-04 | 2.2E-03 |  5.4  4.8E-02  OK|
 | E-Diss.K             | 0.95 | 2.6E-04 | 4.9E-03 |  7.2  1.5E-02  OK|
 +----------------------+------+---------+---------+------------------+

 ======================================================================
 OUTER LOOP ITERATION =  249 (   32) CPU SECONDS = 2.741E+02 (3.651E+01)
 ----------------------------------------------------------------------
 |       Equation       | Rate | RMS Res | Max Res |  Linear Solution |
 +----------------------+------+---------+---------+------------------+
 | U-Mom                | 0.98 | 9.3E-05 | 7.5E-03 |       2.8E-02  OK|
 | V-Mom                | 0.98 | 9.8E-05 | 7.6E-03 |       2.8E-02  OK|
 | W-Mom                | 1.00 | 5.4E-05 | 4.2E-03 |       1.1E-01  ok|
 | P-Mass               | 0.98 | 1.6E-05 | 1.8E-04 | 13.5  4.9E-02  OK|
 +----------------------+------+---------+---------+------------------+
 | H-Energy             | 0.99 | 9.9E-05 | 1.5E-03 |  5.4  5.9E-02  OK|
 +----------------------+------+---------+---------+------------------+
 | K-TurbKE             | 0.94 | 2.0E-04 | 2.1E-03 |  5.4  4.8E-02  OK|
 | E-Diss.K             | 0.95 | 2.5E-04 | 4.6E-03 |  7.2  1.5E-02  OK|
 +----------------------+------+---------+---------+------------------+
                   
 CFD Solver finished: Mon Dec 10 13:11:21 2018
 CFD Solver wall clock seconds: 3.4528E+01

 ======================================================================
              Termination and Interrupt Condition Summary
 ======================================================================
    
 CFD Solver: All target criteria reached
   (Equation residuals)

 ======================================================================
              Boundary Flow and Total Source Term Summary
 ======================================================================

 +--------------------------------------------------------------------+
 |                               U-Mom                                |
 +--------------------------------------------------------------------+
 Boundary         : Default Domain Default                  1.8947E+01
 Boundary         : in1                                     6.0729E-05
 Boundary         : in2                                    -6.5367E-05
 Boundary         : out                                    -1.9526E+01
                                                           -----------
 Domain Imbalance :                                        -5.7982E-01

 +--------------------------------------------------------------------+
 |                               V-Mom                                |
 +--------------------------------------------------------------------+
 Boundary         : Default Domain Default                 -3.1118E+01
 Boundary         : in1                                     6.4824E+04
 Boundary         : in2                                    -6.4786E+04
 Boundary         : out                                    -2.8082E-01
                                                           -----------
 Domain Imbalance :                                         6.3207E+00

 +--------------------------------------------------------------------+
 |                               W-Mom                                |
 +--------------------------------------------------------------------+
 Boundary         : Default Domain Default                 -1.3017E+04
 Boundary         : in1                                    -1.9297E-05
 Boundary         : in2                                    -7.1963E-06
 Boundary         : out                                     1.3059E+04
                                                           -----------
 Domain Imbalance :                                         4.1682E+01

 +--------------------------------------------------------------------+
 |                               P-Mass                               |
 +--------------------------------------------------------------------+
 Boundary         : in1                                     1.5000E+03
 Boundary         : in2                                     1.5000E+03
 Boundary         : out                                    -2.9998E+03
                                                           -----------
 Domain Imbalance :                                         2.1069E-01

 +--------------------------------------------------------------------+
 |                              H-Energy                              |
 +--------------------------------------------------------------------+
 Boundary         : in1                                     1.0569E+08
 Boundary         : in2                                    -8.2484E+07
 Boundary         : out                                    -2.3094E+07
                                                           -----------
 Domain Imbalance :                                         1.1470E+05


 +--------------------------------------------------------------------+
 |                     Normalised Imbalance Summary                   |
 +--------------------------------------------------------------------+
 |       Equation       |      Maximum Flow     |     Imbalance (%)   |
 +--------------------------------------------------------------------+
 | U-Mom                |       6.4824E+04      |       -0.0009       |
 | V-Mom                |       6.4824E+04      |        0.0098       |
 | W-Mom                |       6.4824E+04      |        0.0643       |
 | P-Mass               |       2.9998E+03      |        0.0070       |
 +----------------------+-----------------------+---------------------+
 | H-Energy             |       1.0569E+08      |        0.1085       |
 +----------------------+-----------------------+---------------------+

 ======================================================================
                     Wall Force and Moment Summary
 ======================================================================
                                                                          
 Notes:
 1. Pressure integrals exclude the reference pressure.  To include
    it, set the expert parameter 'include pref in forces = t'.


 +--------------------------------------------------------------------+
 |                      Pressure Force On Walls                       |
 +--------------------------------------------------------------------+
                                    X-Comp.      Y-Comp.      Z-Comp.

 Domain Group: Default Domain

 Default Domain Default          -2.2083E+01   2.9692E+01   1.3128E+04
                                  -----------  -----------  -----------
 Domain Group Totals :           -2.2083E+01   2.9692E+01   1.3128E+04


 +--------------------------------------------------------------------+
 |                       Viscous Force On Walls                       |
 +--------------------------------------------------------------------+
                                    X-Comp.      Y-Comp.      Z-Comp.

 Domain Group: Default Domain

 Default Domain Default           3.0809E+00   1.6746E+00  -1.0945E+02
                                  -----------  -----------  -----------
 Domain Group Totals :            3.0809E+00   1.6746E+00  -1.0945E+02


 +--------------------------------------------------------------------+
 |                      Pressure Moment On Walls                      |
 +--------------------------------------------------------------------+
                                    X-Comp.      Y-Comp.      Z-Comp.

 Domain Group: Default Domain

 Default Domain Default          -2.0774E+01  -6.1699E+01  -1.1052E+05
                                  -----------  -----------  -----------
 Domain Group Totals :           -2.0774E+01  -6.1699E+01  -1.1052E+05


 +--------------------------------------------------------------------+
 |                       Viscous Moment On Walls                      |
 +--------------------------------------------------------------------+
                                    X-Comp.      Y-Comp.      Z-Comp.

 Domain Group: Default Domain

 Default Domain Default           2.5632E+00   3.9872E+00  -5.9309E+03
                                  -----------  -----------  -----------
 Domain Group Totals :            2.5632E+00   3.9872E+00  -5.9309E+03


 +--------------------------------------------------------------------+
 |                   Locations of Maximum Residuals                   |
 +--------------------------------------------------------------------+
 |       Equation       |      Domain Name      |     Node Number     |
 +--------------------------------------------------------------------+
 | U-Mom                | Default Domain        |          24813      |
 | V-Mom                | Default Domain        |          24813      |
 | W-Mom                | Default Domain        |          24813      |
 | P-Mass               | Default Domain        |          25543      |
 +----------------------+-----------------------+---------------------+
 | H-Energy             | Default Domain        |          24813      |
 +----------------------+-----------------------+---------------------+
 | K-TurbKE             | Default Domain        |          19697      |
 | E-Diss.K             | Default Domain        |          26680      |
 +----------------------+-----------------------+---------------------+

 ======================================================================
 |                     False Transient Information                    |
 +--------------------------------------------------------------------+
 |       Equation       |         Type          | Elapsed Pseudo-Time |
 +--------------------------------------------------------------------+
 | U-Mom                | Auto Timescale        |     5.89330E+00     |
 | V-Mom                | Auto Timescale        |     5.89330E+00     |
 | W-Mom                | Auto Timescale        |     5.89330E+00     |
 +----------------------+-----------------------+---------------------+
 | H-Energy             | Auto Timescale        |     5.89330E+00     |
 +----------------------+-----------------------+---------------------+
 | K-TurbKE             | Auto Timescale        |     5.89330E+00     |
 | E-Diss.K             | Auto Timescale        |     5.89330E+00     |
 +----------------------+-----------------------+---------------------+

 +--------------------------------------------------------------------+
 |                     Average Scale Information                      |
 +--------------------------------------------------------------------+

 Domain Name : Default Domain
     Global Length                                         = 3.2159E+00
     Minimum Extent                                        = 4.0000E+00
     Maximum Extent                                        = 6.0000E+00
     Density                                               = 9.9700E+02
     Dynamic Viscosity                                     = 8.8990E-04
     Velocity                                              = 5.7339E+00
     Advection Time                                        = 5.6085E-01
     Reynolds Number                                       = 2.0659E+07
     Thermal Conductivity                                  = 6.0690E-01
     Specific Heat Capacity at Constant Pressure           = 4.1817E+03
     Prandtl Number                                        = 6.1316E+00
     Temperature Range                                     = 3.0021E+01

 +--------------------------------------------------------------------+
 |                     Variable Range Information                     |
 +--------------------------------------------------------------------+

 Domain Name : Default Domain
 +--------------------------------------------------------------------+
 |      Variable Name                         |    min    |    max    |
 +--------------------------------------------------------------------+
 | Density                                    |  9.97E+02 |  9.97E+02 |
 | Specific Heat Capacity at Constant Pressure|  4.18E+03 |  4.18E+03 |
 | Dynamic Viscosity                          |  8.90E-04 |  8.90E-04 |
 | Thermal Conductivity                       |  6.07E-01 |  6.07E-01 |
 | Static Entropy                             | -1.89E+02 |  2.30E+02 |
 | Velocity u                                 | -6.82E+00 |  6.77E+00 |
 | Velocity v                                 | -7.06E+00 |  7.04E+00 |
 | Velocity w                                 | -5.68E+00 |  1.91E+00 |
 | Pressure                                   | -1.12E+04 |  8.19E+04 |
 | Turbulence Kinetic Energy                  |  1.06E-04 |  5.15E+00 |
 | Turbulence Eddy Dissipation                |  3.12E-04 |  3.09E+02 |
 | Eddy Viscosity                             |  1.37E-03 |  3.45E+02 |
 | Temperature                                |  2.85E+02 |  3.15E+02 |
 | Static Enthalpy                            | -5.50E+04 |  7.05E+04 |
 +--------------------------------------------------------------------+

 +--------------------------------------------------------------------+
 |               CPU Requirements of Numerical Solution               |
 +--------------------------------------------------------------------+

 Subsystem Name                  Discretization       Linear Solution
                                (secs.   %total)     (secs.   %total) 
 ----------------------------------------------------------------------
 Momentum and Mass              1.20E+01  29.2 %     3.91E+00   9.5 %
 Heat Transfer                  4.04E+00   9.8 %     1.32E+00   3.2 %
 TurbKE and Diss.K              6.20E+00  15.1 %     2.95E+00   7.2 %
                                -------- -------     --------  ------
 Subsystem Summary              2.22E+01  54.1 %     8.19E+00  19.9 %

 File Reading                   2.60E-02    0.1 %
 Variable Updates               3.92E+00    9.5 %
 File Writing                   5.38E-01    1.3 %
 Miscellaneous                  6.21E+00   15.1 %
                                --------
 Total                          4.11E+01

 +--------------------------------------------------------------------+
 |                   Job Information at End of Run                    |
 +--------------------------------------------------------------------+

 Host computer:  ENPC-LAB121 (PID:6512)

 Job finished:   Mon Dec 10 13:11:25 2018

 Total wall clock time: 4.109E+01 seconds
             or: (          0:         0:         0:    41.093 )
                 (       Days:     Hours:   Minutes:   Seconds )

End of solution stage.

 +--------------------------------------------------------------------+
 | The results from this run of the ANSYS CFX Solver have been        |
 | written to D:/CFD                                                  |
 | BackUps/CFD-Static-Mixer/StaticMixerDX_pending/dp14_CFX_Solution/- |
 | Fluid Flow CFX_005.res                                             |
 +--------------------------------------------------------------------+


 +--------------------------------------------------------------------+
 | For CFX runs launched from Workbench, the final locations of       |
 | directories and files generated may differ from those shown.       |
 +--------------------------------------------------------------------+


This run of the ANSYS CFX Solver has finished.
