 This run of the CFX Release 19.1 Solver started at 16:07:52 on 07 Dec
 2018 by user jc2182 on ENPC-LAB118 (intel_xeon64.sse2_winnt) using the
 command:
 
  "C:\Program Files\ANSYS Inc\v191\CFX\bin\perllib\cfx5solve.pl" -batch
    -ccl runInput.ccl -fullname "Fluid Flow CFX_011"
 
 Release 19.1
 
  Point Releases and Patches installed:
  ANSYS, Inc. Products Release 19.1
  SpaceClaim Release 19.1
  Autodyn Release 19.1
  LS-DYNA Release 19.1
  CFD-Post only Release 19.1
  CFX (includes CFD-Post) Release 19.1
  Chemkin Release 19.1
  EnSight Release 19.1
  FENSAP-ICE Release 19.1
  Fluent (includes CFD-Post) Release 19.1
  Forte Release 19.1
  Polyflow (includes CFD-Post) Release 19.1
  TurboGrid Release 19.1
  ICEM CFD Release 19.1
  Customization Files for User Programmable Features Release 19.1
  Mechanical Products Release 19.1
  Icepak (includes CFD-Post) Release 19.1
  Remote Solve Manager Standalone Services Release 19.1
  ACIS Geometry Interface Release 19.1
  Catia, Version 5 Geometry Interface Release 19.1
  NX Geometry Interface Release 19.1
  Parasolid Geometry Interface  Release 19.1
  ANSYS, Inc. License Manager Release 19.1
 
 Setting up CFX Solver run ...
 
 
 +--------------------------------------------------------------------+
 |                                                                    |
 |                    CFX Command Language for Run                    |
 |                                                                    |
 +--------------------------------------------------------------------+
 
 LIBRARY:
   CEL:
     EXPRESSIONS:
       inMassFlow = 1500 [kg s^-1]
     END
   END
   MATERIAL: Water
     Material Description = Water (liquid)
     Material Group = Water Data, Constant Property Liquids
     Option = Pure Substance
     Thermodynamic State = Liquid
     PROPERTIES:
       Option = General Material
       EQUATION OF STATE:
         Density = 997.0 [kg m^-3]
         Molar Mass = 18.02 [kg kmol^-1]
         Option = Value
       END
       SPECIFIC HEAT CAPACITY:
         Option = Value
         Specific Heat Capacity = 4181.7 [J kg^-1 K^-1]
         Specific Heat Type = Constant Pressure
       END
       REFERENCE STATE:
         Option = Specified Point
         Reference Pressure = 1 [atm]
         Reference Specific Enthalpy = 0.0 [J/kg]
         Reference Specific Entropy = 0.0 [J/kg/K]
         Reference Temperature = 25 [C]
       END
       DYNAMIC VISCOSITY:
         Dynamic Viscosity = 8.899E-4 [kg m^-1 s^-1]
         Option = Value
       END
       THERMAL CONDUCTIVITY:
         Option = Value
         Thermal Conductivity = 0.6069 [W m^-1 K^-1]
       END
       ABSORPTION COEFFICIENT:
         Absorption Coefficient = 1.0 [m^-1]
         Option = Value
       END
       SCATTERING COEFFICIENT:
         Option = Value
         Scattering Coefficient = 0.0 [m^-1]
       END
       REFRACTIVE INDEX:
         Option = Value
         Refractive Index = 1.0 [m m^-1]
       END
       THERMAL EXPANSIVITY:
         Option = Value
         Thermal Expansivity = 2.57E-04 [K^-1]
       END
     END
   END
 END
 FLOW: Flow Analysis 1
   SOLUTION UNITS:
     Angle Units = [rad]
     Length Units = [m]
     Mass Units = [kg]
     Solid Angle Units = [sr]
     Temperature Units = [K]
     Time Units = [s]
   END
   ANALYSIS TYPE:
     Option = Steady State
     EXTERNAL SOLVER COUPLING:
       Option = None
     END
   END
   DOMAIN: Default Domain
     Coord Frame = Coord 0
     Domain Type = Fluid
     Location = B17
     BOUNDARY: Default Domain Default
       Boundary Type = WALL
       Location = F12.17,F14.17,F16.17,F19.17,F20.17,F21.17
       BOUNDARY CONDITIONS:
         HEAT TRANSFER:
           Option = Adiabatic
         END
         MASS AND MOMENTUM:
           Option = No Slip Wall
         END
         WALL ROUGHNESS:
           Option = Smooth Wall
         END
       END
     END
     BOUNDARY: in1
       Boundary Type = INLET
       Location = in1
       BOUNDARY CONDITIONS:
         FLOW DIRECTION:
           Option = Normal to Boundary Condition
         END
         FLOW REGIME:
           Option = Subsonic
         END
         HEAT TRANSFER:
           Option = Static Temperature
           Static Temperature = 315 [K]
         END
         MASS AND MOMENTUM:
           Mass Flow Rate = inMassFlow
           Mass Flow Rate Area = As Specified
           Option = Mass Flow Rate
         END
         TURBULENCE:
           Option = Medium Intensity and Eddy Viscosity Ratio
         END
       END
     END
     BOUNDARY: in2
       Boundary Type = INLET
       Location = in2
       BOUNDARY CONDITIONS:
         FLOW DIRECTION:
           Option = Normal to Boundary Condition
         END
         FLOW REGIME:
           Option = Subsonic
         END
         HEAT TRANSFER:
           Option = Static Temperature
           Static Temperature = 285 [K]
         END
         MASS AND MOMENTUM:
           Mass Flow Rate = inMassFlow
           Mass Flow Rate Area = As Specified
           Option = Mass Flow Rate
         END
         TURBULENCE:
           Option = Medium Intensity and Eddy Viscosity Ratio
         END
       END
     END
     BOUNDARY: out
       Boundary Type = OUTLET
       Location = out
       BOUNDARY CONDITIONS:
         FLOW REGIME:
           Option = Subsonic
         END
         MASS AND MOMENTUM:
           Option = Static Pressure
           Relative Pressure = 0 [Pa]
         END
       END
     END
     DOMAIN MODELS:
       BUOYANCY MODEL:
         Option = Non Buoyant
       END
       DOMAIN MOTION:
         Option = Stationary
       END
       MESH DEFORMATION:
         Option = None
       END
       REFERENCE PRESSURE:
         Reference Pressure = 1 [atm]
       END
     END
     FLUID DEFINITION: Fluid 1
       Material = Water
       Option = Material Library
       MORPHOLOGY:
         Option = Continuous Fluid
       END
     END
     FLUID MODELS:
       COMBUSTION MODEL:
         Option = None
       END
       HEAT TRANSFER MODEL:
         Option = Thermal Energy
       END
       THERMAL RADIATION MODEL:
         Option = None
       END
       TURBULENCE MODEL:
         Option = k epsilon
       END
       TURBULENT WALL FUNCTIONS:
         Option = Scalable
       END
     END
   END
   OUTPUT CONTROL:
     RESULTS:
       File Compression Level = Default
       Option = Standard
     END
   END
   SOLVER CONTROL:
     Turbulence Numerics = High Resolution
     ADVECTION SCHEME:
       Option = High Resolution
     END
     CONVERGENCE CONTROL:
       Length Scale Option = Conservative
       Maximum Number of Iterations = 100
       Minimum Number of Iterations = 5
       Timescale Control = Auto Timescale
       Timescale Factor = 1.0
     END
     CONVERGENCE CRITERIA:
       Residual Target = 1.E-4
       Residual Type = RMS
     END
     DYNAMIC MODEL CONTROL:
       Global Dynamic Model Control = On
     END
   END
 END
 COMMAND FILE:
   Version = 19.1
   Results Version = 19.1
 END
 PARAMETERIZATION:
   INPUT FIELD: inMassFlow
     Expression Name = inMassFlow
     Method = Expression
   END
 END
 SIMULATION CONTROL:
   EXECUTION CONTROL:
     EXECUTABLE SELECTION:
       Double Precision = No
       Large Problem = No
     END
     INTERPOLATOR STEP CONTROL:
       Runtime Priority = Standard
       MEMORY CONTROL:
         Memory Allocation Factor = 1.0
       END
     END
     PARALLEL HOST LIBRARY:
       HOST DEFINITION: enpclab118
         Remote Host Name = ENPC-LAB118
         Host Architecture String = winnt-amd64
         Installation Root = C:\Program Files\ANSYS Inc\v%v\CFX
       END
     END
     PARTITIONER STEP CONTROL:
       Multidomain Option = Automatic
       Runtime Priority = Standard
       MEMORY CONTROL:
         Memory Allocation Factor = 1.0
       END
       PARTITION SMOOTHING:
         Maximum Partition Smoothing Sweeps = 100
         Option = Smooth
       END
       PARTITIONING TYPE:
         MeTiS Type = k-way
         Option = MeTiS
         Partition Size Rule = Automatic
       END
     END
     RUN DEFINITION:
       Run Mode = Full
       Solver Input File = Fluid Flow CFX.def
       Solver Results File = \
         H:/dos/CFD/CW/CFD-Static-Mixer/StaticMixerDX_pending/dp9_CFX_Solution\
         /Fluid Flow CFX_011.res
       INITIAL VALUES SPECIFICATION:
         INITIAL VALUES CONTROL:
           Use Mesh From = Solver Input File
           Continue History From = Workbench Initial Values
         END
         INITIAL VALUES: Workbench Initial Values
           Option = Results File
           File Name = Fluid Flow CFX_010.res
         END
       END
     END
     SOLVER STEP CONTROL:
       Runtime Priority = Standard
       MEMORY CONTROL:
         Memory Allocation Factor = 1.0
       END
       PARALLEL ENVIRONMENT:
         Number of Processes = 1
         Start Method = Serial
       END
     END
   END
 END
 
 
 +--------------------------------------------------------------------+
 |                                                                    |
 |                  Interpolation of Initial Values                   |
 |                                                                    |
 +--------------------------------------------------------------------+
 
 


 +--------------------------------------------------------------------+
 |                                                                    |
 |                    ANSYS(R) CFX(R) Interpolator                    |
 |                                                                    |
 | Release 19.1                                                       |
 | Build 19.1 2018-04-17T13:27:50.069000                              |
 | Tue Apr 17 15:02:11 GMTDT 2018                                     |
 |                                                                    |
 |                        Executable Attributes                       |
 |                                                                    |
 |           single-64bit-int32-archfort-optimised-std-lcomp          |
 |                                                                    |
 | (C) 1996-2018 ANSYS, Inc.                                          |
 |                                                                    |
 | All rights reserved. Unauthorized use, distribution or duplication |
 | is prohibited. This product is subject to U.S. laws governing      |
 | export and re-export. For full Legal Notice, see documentation.    |
 +--------------------------------------------------------------------+




 +--------------------------------------------------------------------+
 |                  Job Information at Start of Run                   |
 +--------------------------------------------------------------------+

 Run mode:       serial run

 Host computer:  ENPC-LAB118 (PID:7364)

 Job started:    Fri Dec  7 16:07:53 2018


 +--------------------------------------------------------------------+
 |        Memory Allocated for Run  (Actual usage may be less)        |
 +--------------------------------------------------------------------+

           | Real       | Integer    | Character | Logical  | Double
 ----------+------------+------------+-----------+----------+----------
 Mwords    |       1.61 |       1.93 |      0.20 |     0.01 |     0.08
 Mbytes    |       6.16 |       7.35 |      0.19 |     0.04 |     0.63
 ----------+------------+------------+-----------+----------+----------


 +--------------------------------------------------------------------+
 |                  Host Memory Information (Mbytes)                  |
 +--------------------------------------------------------------------+
 |          Host           |     System     |   Allocated    |   %    |
 +-------------------------+----------------+----------------+--------+
 | ENPC-LAB118             |     16241.86   |        14.36   |   0.09 |
 +-------------------------+----------------+----------------+--------+

 ======================================================================
               Interpolating Onto Domain "Default Domain"
 ======================================================================

 Total Number of Nodes in the Target Domain              =        27395
 Bounding Box Volume of the Target Mesh                  =  9.60000E+01


 Checking all source domains from the source file:
   Target mesh is different from domain "Default Domain".

 Searching for Candidate Source Domains:
   Domain "Default Domain"
     Number of Mapped Nodes                     =        25907 ( 94.6%)
     Bounding Box Overlap Volume                =  9.60000E+01 (100.0%)
   Setting Up Unmapped Nodes:
     Number of Unmapped Nodes                   =         1488 (  5.4%)

 Start interpolation of variables: 
   Source Domain Name                                    Mapped Nodes
   Default Domain                                        25907 ( 94.6%)

 +--------------------------------------------------------------------+
 |                     Variable Range Information                     |
 +--------------------------------------------------------------------+
 +--------------------------------------------------------------------+
 |      Variable Name                         |    min    |    max    |
 +--------------------------------------------------------------------+
 | Thermal Conductivity                       |  6.07E-01 |  6.07E-01 |
 | Courant Number                             |  9.29E-01 |  5.50E+01 |
 | Density                                    |  9.97E+02 |  9.97E+02 |
 | Static Enthalpy                            | -5.50E+04 |  7.05E+04 |
 | Static Entropy                             | -1.89E+02 |  2.30E+02 |
 | Pressure                                   | -1.23E+04 |  9.52E+04 |
 | Specific Heat Capacity at Constant Pressure|  4.18E+03 |  4.18E+03 |
 | Specific Heat Capacity at Constant Volume  |  4.18E+03 |  4.18E+03 |
 | Turbulence Eddy Dissipation                |  3.56E-04 |  3.39E+02 |
 | Turbulence Eddy Frequency                  |  7.32E+00 |  3.04E+03 |
 | Temperature                                |  2.85E+02 |  3.15E+02 |
 | Turbulence Kinetic Energy                  |  1.07E-04 |  5.40E+00 |
 | Velocity                                   |  2.35E-01 |  8.30E+00 |
 | Dynamic Viscosity                          |  8.90E-04 |  8.90E-04 |
 | Eddy Viscosity                             |  9.60E-04 |  3.61E+02 |
 +--------------------------------------------------------------------+

 +--------------------------------------------------------------------+
 |                 CPU Requirements of Interpolation                  |
 +--------------------------------------------------------------------+

 Interpolation Step              Time    Percentage
                                (secs.   %total)
 ----------------------------------------------------------------------
 Tree Setup                     3.38E-01    9.6 %
 Interpolation                  1.41E+00   39.7 %
 Unmatched Nodes                7.10E-02    2.0 %
 Miscellaneous                  1.72E+00   48.7 %
                                --------
 Total                          3.54E+00

 +--------------------------------------------------------------------+
 |                   Job Information at End of Run                    |
 +--------------------------------------------------------------------+

 Host computer:  ENPC-LAB118 (PID:7364)

 Job finished:   Fri Dec  7 16:07:56 2018

 Total wall clock time: 3.541E+00 seconds
             or: (          0:         0:         0:     3.541 )
                 (       Days:     Hours:   Minutes:   Seconds )

 
 +--------------------------------------------------------------------+
 |                                                                    |
 |                               Solver                               |
 |                                                                    |
 +--------------------------------------------------------------------+
 



 +--------------------------------------------------------------------+
 |                                                                    |
 |                       ANSYS(R) CFX(R) Solver                       |
 |                                                                    |
 | Release 19.1                                                       |
 | Build 19.1 2018-04-17T13:27:50.069000                              |
 | Tue Apr 17 15:02:11 GMTDT 2018                                     |
 |                                                                    |
 |                        Executable Attributes                       |
 |                                                                    |
 |           single-64bit-int32-archfort-optimised-std-lcomp          |
 |                                                                    |
 | (C) 1996-2018 ANSYS, Inc.                                          |
 |                                                                    |
 | All rights reserved. Unauthorized use, distribution or duplication |
 | is prohibited. This product is subject to U.S. laws governing      |
 | export and re-export. For full Legal Notice, see documentation.    |
 +--------------------------------------------------------------------+




 +--------------------------------------------------------------------+
 |                  Job Information at Start of Run                   |
 +--------------------------------------------------------------------+

 Run mode:       serial run

 Host computer:  ENPC-LAB118 (PID:1240)

 Job started:    Fri Dec  7 16:07:59 2018

 +--------------------------------------------------------------------+
 |                        License Information                         |
 +--------------------------------------------------------------------+
 
 License Cap:    ANSYS CFX Solver (Max 128K Nodes)
 License ID:     VIGO_campus_bath_ac_uk-SYSTEM-1456-1315885


 +--------------------------------------------------------------------+
 |        Memory Allocated for Run  (Actual usage may be less)        |
 +--------------------------------------------------------------------+

           | Real       | Integer    | Character | Logical  | Double
 ----------+------------+------------+-----------+----------+----------
 Mwords    |      17.41 |       4.81 |      7.26 |     0.12 |     0.89
 Mbytes    |      66.40 |      18.34 |      6.93 |     0.46 |     6.82
 ----------+------------+------------+-----------+----------+----------


 +--------------------------------------------------------------------+
 |                  Host Memory Information (Mbytes)                  |
 +--------------------------------------------------------------------+
 |          Host           |     System     |   Allocated    |   %    |
 +-------------------------+----------------+----------------+--------+
 | ENPC-LAB118             |     16241.86   |        98.94   |   0.61 |
 +-------------------------+----------------+----------------+--------+


 +--------------------------------------------------------------------+
 |                     ****** Notice ******                           |
 | The Wall Heat Transfer Coefficient written to the results file for |
 | any turbulent phase with heat transfer is based on the turbulent   |
 | wall function coefficient. It is consistent with the Wall Heat Flux|
 | the wall temperature, and the Wall Adjacent Temperature            |
 | (near-wall temperature).  If you would like it to be based on a    |
 | user-specified bulk temperature instead, please set the expert     |
 | parameter "tbulk for htc = <value>".                               |
 +--------------------------------------------------------------------+

 +--------------------------------------------------------------------+
 |                      Topology Simplification                       |
 +--------------------------------------------------------------------+

 +--------------------------------------------------------------------+
 |                       ****** Warning ******                        |
 |                                                                    |
 | Topology simplification is activated with the following            |
 | restrictions:                                                      |
 |                                                                    |
 | - Mesh regions referenced only within User Fortran and NOT         |
 |   in the command file will cause the solver to stop.               |
 | - The solver will stop during any "Edit Run in Progress" step      |
 |   if new 2D regions are referenced.                                |
 +--------------------------------------------------------------------+

 +--------------------------------------------------------------------+
 |                          Mesh Statistics                           |
 +--------------------------------------------------------------------+
 | Domain Name          | Orthog. Angle | Exp. Factor  | Aspect Ratio |
 +----------------------+---------------+--------------+--------------+
 |                      | Minimum [deg] |   Maximum    |    Maximum   |
 +----------------------+---------------+--------------+--------------+
 | Default Domain       |       30.5 ok |        12 ok |        29 OK |
 +----------------------+---------------+--------------+--------------+
 |                      |  %!  %ok  %OK | %!  %ok  %OK | %!  %ok  %OK |
 +----------------------+---------------+--------------+--------------+
 | Default Domain       |   0    1   99 |  0   <1  100 |  0    0  100 |
 +----------------------+---------------+--------------+--------------+

 Domain Name : Default Domain

     Total Number of Nodes                                =       27395

     Total Number of Elements                             =       98461
         Total Number of Tetrahedrons                     =       71766
         Total Number of Prisms                           =       26695

     Total Number of Faces                                =        7227

 +--------------------------------------------------------------------+
 |      Initial Conditions Supplied by Fields in the Input Files      |
 +--------------------------------------------------------------------+

 Domain Name : Default Domain
     Courant Number
     Eddy Viscosity
     Pressure
     Specific Heat Capacity at Constant Pressure
     Static Enthalpy
     Static Entropy
     Temperature
     Turbulence Eddy Dissipation
     Turbulence Eddy Frequency
     Turbulence Kinetic Energy
     Velocity

 +--------------------------------------------------------------------+
 |                     Average Scale Information                      |
 +--------------------------------------------------------------------+

 Domain Name : Default Domain
     Global Length                                         = 3.2201E+00
     Minimum Extent                                        = 4.0000E+00
     Maximum Extent                                        = 6.0000E+00
     Density                                               = 9.9700E+02
     Dynamic Viscosity                                     = 8.8990E-04
     Velocity                                              = 6.3103E+00
     Advection Time                                        = 5.1030E-01
     Reynolds Number                                       = 2.2765E+07
     Thermal Conductivity                                  = 6.0690E-01
     Specific Heat Capacity at Constant Pressure           = 4.1817E+03
     Prandtl Number                                        = 6.1316E+00
     Temperature Range                                     = 3.0015E+01

 +--------------------------------------------------------------------+
 |                Checking for Isolated Fluid Regions                 |
 +--------------------------------------------------------------------+
 
 No isolated fluid regions were found.

 +--------------------------------------------------------------------+
 |              The Equations Solved in This Calculation              |
 +--------------------------------------------------------------------+

 Subsystem : Momentum and Mass

   U-Mom
   V-Mom
   W-Mom
   P-Mass

 Subsystem : Heat Transfer

   H-Energy

 Subsystem : TurbKE and Diss.K

   K-TurbKE
   E-Diss.K
                   
 CFD Solver started: Fri Dec  7 16:08:03 2018


 +--------------------------------------------------------------------+
 |                       Convergence History                          |
 +--------------------------------------------------------------------+

 ======================================================================
 |                        Timescale Information                       |
 ----------------------------------------------------------------------
 |       Equation       |         Type          |      Timescale      |
 +----------------------+-----------------------+---------------------+
 | U-Mom                | Auto Timescale        |     1.58488E-01     |
 | V-Mom                | Auto Timescale        |     1.58488E-01     |
 | W-Mom                | Auto Timescale        |     1.58488E-01     |
 +----------------------+-----------------------+---------------------+
 | H-Energy             | Auto Timescale        |     1.58488E-01     |
 +----------------------+-----------------------+---------------------+
 | K-TurbKE             | Auto Timescale        |     1.58488E-01     |
 | E-Diss.K             | Auto Timescale        |     1.58488E-01     |
 +----------------------+-----------------------+---------------------+

 ======================================================================
 OUTER LOOP ITERATION =  405 (    1) CPU SECONDS = 3.027E+02 (3.472E+00)
 ----------------------------------------------------------------------
 |       Equation       | Rate | RMS Res | Max Res |  Linear Solution |
 +----------------------+------+---------+---------+------------------+
 | U-Mom                | 0.00 | 3.2E-03 | 1.4E-01 |       1.1E-01  ok|
 | V-Mom                | 0.00 | 3.6E-03 | 1.2E-01 |       1.1E-01  ok|
 | W-Mom                | 0.00 | 2.0E-03 | 1.3E-01 |       1.2E-01  ok|
 | P-Mass               | 0.00 | 1.3E-03 | 6.9E-02 |  5.2  9.2E-02  OK|
 +----------------------+------+---------+---------+------------------+
 | H-Energy             | 0.00 | 4.6E-03 | 8.8E-02 |  5.4  3.5E-02  OK|
 +----------------------+------+---------+---------+------------------+
 | K-TurbKE             | 0.00 | 4.6E-03 | 6.5E-02 |  5.4  4.5E-02  OK|
 | E-Diss.K             | 0.00 | 3.6E-02 | 6.6E-01 |  7.2  7.2E-03  OK|
 +----------------------+------+---------+---------+------------------+

 ======================================================================
 |                        Timescale Information                       |
 ----------------------------------------------------------------------
 |       Equation       |         Type          |      Timescale      |
 +----------------------+-----------------------+---------------------+
 | U-Mom                | Auto Timescale        |     1.62522E-01     |
 | V-Mom                | Auto Timescale        |     1.62522E-01     |
 | W-Mom                | Auto Timescale        |     1.62522E-01     |
 +----------------------+-----------------------+---------------------+
 | H-Energy             | Auto Timescale        |     1.62522E-01     |
 +----------------------+-----------------------+---------------------+
 | K-TurbKE             | Auto Timescale        |     1.62522E-01     |
 | E-Diss.K             | Auto Timescale        |     1.62522E-01     |
 +----------------------+-----------------------+---------------------+

 ======================================================================
 OUTER LOOP ITERATION =  406 (    2) CPU SECONDS = 3.039E+02 (4.611E+00)
 ----------------------------------------------------------------------
 |       Equation       | Rate | RMS Res | Max Res |  Linear Solution |
 +----------------------+------+---------+---------+------------------+
 | U-Mom                | 0.51 | 1.6E-03 | 4.5E-02 |       8.7E-02  OK|
 | V-Mom                | 0.60 | 2.2E-03 | 7.5E-02 |       8.4E-02  OK|
 | W-Mom                | 0.47 | 9.3E-04 | 5.8E-02 |       1.1E-01  ok|
 | P-Mass               | 0.35 | 4.4E-04 | 1.8E-02 |  9.4  4.4E-02  OK|
 +----------------------+------+---------+---------+------------------+
 | H-Energy             | 0.30 | 1.4E-03 | 5.1E-02 |  5.4  5.8E-02  OK|
 +----------------------+------+---------+---------+------------------+
 | K-TurbKE             | 1.58 | 7.3E-03 | 5.0E-02 |  5.4  4.5E-02  OK|
 | E-Diss.K             | 0.59 | 2.1E-02 | 4.5E-01 |  7.3  3.2E-03  OK|
 +----------------------+------+---------+---------+------------------+

 ======================================================================
 OUTER LOOP ITERATION =  407 (    3) CPU SECONDS = 3.049E+02 (5.646E+00)
 ----------------------------------------------------------------------
 |       Equation       | Rate | RMS Res | Max Res |  Linear Solution |
 +----------------------+------+---------+---------+------------------+
 | U-Mom                | 0.61 | 1.0E-03 | 3.0E-02 |       1.0E-01  ok|
 | V-Mom                | 0.73 | 1.6E-03 | 3.4E-02 |       9.4E-02  OK|
 | W-Mom                | 0.57 | 5.3E-04 | 4.1E-02 |       1.9E-01  ok|
 | P-Mass               | 0.64 | 2.8E-04 | 9.1E-03 |  9.4  5.0E-02  OK|
 +----------------------+------+---------+---------+------------------+
 | H-Energy             | 0.81 | 1.1E-03 | 4.1E-02 |  5.4  4.1E-02  OK|
 +----------------------+------+---------+---------+------------------+
 | K-TurbKE             | 0.50 | 3.6E-03 | 2.6E-02 |  5.4  4.2E-02  OK|
 | E-Diss.K             | 0.35 | 7.4E-03 | 9.7E-02 |  7.2  8.8E-03  OK|
 +----------------------+------+---------+---------+------------------+

 ======================================================================
 OUTER LOOP ITERATION =  408 (    4) CPU SECONDS = 3.060E+02 (6.719E+00)
 ----------------------------------------------------------------------
 |       Equation       | Rate | RMS Res | Max Res |  Linear Solution |
 +----------------------+------+---------+---------+------------------+
 | U-Mom                | 0.75 | 7.5E-04 | 3.0E-02 |       7.9E-02  OK|
 | V-Mom                | 0.52 | 8.3E-04 | 2.0E-02 |       7.7E-02  OK|
 | W-Mom                | 0.64 | 3.4E-04 | 2.1E-02 |       1.5E-01  ok|
 | P-Mass               | 0.65 | 1.8E-04 | 6.7E-03 |  9.4  4.6E-02  OK|
 +----------------------+------+---------+---------+------------------+
 | H-Energy             | 0.80 | 8.9E-04 | 3.0E-02 |  5.4  4.4E-02  OK|
 +----------------------+------+---------+---------+------------------+
 | K-TurbKE             | 0.74 | 2.7E-03 | 2.2E-02 |  5.4  3.9E-02  OK|
 | E-Diss.K             | 0.38 | 2.8E-03 | 4.3E-02 |  7.3  1.1E-02  OK|
 +----------------------+------+---------+---------+------------------+

 ======================================================================
 OUTER LOOP ITERATION =  409 (    5) CPU SECONDS = 3.070E+02 (7.757E+00)
 ----------------------------------------------------------------------
 |       Equation       | Rate | RMS Res | Max Res |  Linear Solution |
 +----------------------+------+---------+---------+------------------+
 | U-Mom                | 0.79 | 5.9E-04 | 2.5E-02 |       4.5E-02  OK|
 | V-Mom                | 0.60 | 5.0E-04 | 1.0E-02 |       4.8E-02  OK|
 | W-Mom                | 0.67 | 2.3E-04 | 8.8E-03 |       1.1E-01  ok|
 | P-Mass               | 0.63 | 1.2E-04 | 4.3E-03 |  9.4  3.8E-02  OK|
 +----------------------+------+---------+---------+------------------+
 | H-Energy             | 0.82 | 7.3E-04 | 1.8E-02 |  5.4  4.9E-02  OK|
 +----------------------+------+---------+---------+------------------+
 | K-TurbKE             | 0.49 | 1.3E-03 | 1.1E-02 |  5.4  3.6E-02  OK|
 | E-Diss.K             | 0.85 | 2.4E-03 | 2.0E-02 |  7.3  1.0E-02  OK|
 +----------------------+------+---------+---------+------------------+

 ======================================================================
 OUTER LOOP ITERATION =  410 (    6) CPU SECONDS = 3.081E+02 (8.793E+00)
 ----------------------------------------------------------------------
 |       Equation       | Rate | RMS Res | Max Res |  Linear Solution |
 +----------------------+------+---------+---------+------------------+
 | U-Mom                | 0.75 | 4.4E-04 | 1.4E-02 |       3.9E-02  OK|
 | V-Mom                | 0.83 | 4.2E-04 | 5.7E-03 |       4.3E-02  OK|
 | W-Mom                | 0.78 | 1.8E-04 | 5.5E-03 |       7.0E-02  OK|
 | P-Mass               | 0.61 | 7.1E-05 | 2.8E-03 |  9.4  3.7E-02  OK|
 +----------------------+------+---------+---------+------------------+
 | H-Energy             | 0.86 | 6.3E-04 | 1.1E-02 |  5.4  4.9E-02  OK|
 +----------------------+------+---------+---------+------------------+
 | K-TurbKE             | 0.74 | 9.8E-04 | 6.7E-03 |  5.4  3.2E-02  OK|
 | E-Diss.K             | 0.78 | 1.8E-03 | 3.4E-02 |  7.3  9.3E-03  OK|
 +----------------------+------+---------+---------+------------------+

 ======================================================================
 |                        Timescale Information                       |
 ----------------------------------------------------------------------
 |       Equation       |         Type          |      Timescale      |
 +----------------------+-----------------------+---------------------+
 | U-Mom                | Auto Timescale        |     1.69512E-01     |
 | V-Mom                | Auto Timescale        |     1.69512E-01     |
 | W-Mom                | Auto Timescale        |     1.69512E-01     |
 +----------------------+-----------------------+---------------------+
 | H-Energy             | Auto Timescale        |     1.69512E-01     |
 +----------------------+-----------------------+---------------------+
 | K-TurbKE             | Auto Timescale        |     1.69512E-01     |
 | E-Diss.K             | Auto Timescale        |     1.69512E-01     |
 +----------------------+-----------------------+---------------------+

 ======================================================================
 OUTER LOOP ITERATION =  411 (    7) CPU SECONDS = 3.091E+02 (9.827E+00)
 ----------------------------------------------------------------------
 |       Equation       | Rate | RMS Res | Max Res |  Linear Solution |
 +----------------------+------+---------+---------+------------------+
 | U-Mom                | 0.76 | 3.3E-04 | 7.6E-03 |       6.1E-02  OK|
 | V-Mom                | 0.82 | 3.4E-04 | 4.8E-03 |       6.2E-02  OK|
 | W-Mom                | 0.85 | 1.5E-04 | 3.4E-03 |       5.8E-02  OK|
 | P-Mass               | 0.67 | 4.7E-05 | 1.8E-03 |  9.4  4.5E-02  OK|
 +----------------------+------+---------+---------+------------------+
 | H-Energy             | 0.89 | 5.6E-04 | 7.5E-03 |  5.4  5.0E-02  OK|
 +----------------------+------+---------+---------+------------------+
 | K-TurbKE             | 0.73 | 7.2E-04 | 8.4E-03 |  5.4  3.2E-02  OK|
 | E-Diss.K             | 0.51 | 9.4E-04 | 1.5E-02 |  7.3  1.1E-02  OK|
 +----------------------+------+---------+---------+------------------+

 ======================================================================
 OUTER LOOP ITERATION =  412 (    8) CPU SECONDS = 3.101E+02 (1.086E+01)
 ----------------------------------------------------------------------
 |       Equation       | Rate | RMS Res | Max Res |  Linear Solution |
 +----------------------+------+---------+---------+------------------+
 | U-Mom                | 0.79 | 2.6E-04 | 5.4E-03 |       7.6E-02  OK|
 | V-Mom                | 0.83 | 2.8E-04 | 3.9E-03 |       7.4E-02  OK|
 | W-Mom                | 0.90 | 1.4E-04 | 2.8E-03 |       7.0E-02  OK|
 | P-Mass               | 0.84 | 3.9E-05 | 1.2E-03 |  9.4  5.9E-02  OK|
 +----------------------+------+---------+---------+------------------+
 | H-Energy             | 0.86 | 4.8E-04 | 5.2E-03 |  5.4  5.0E-02  OK|
 +----------------------+------+---------+---------+------------------+
 | K-TurbKE             | 0.80 | 5.8E-04 | 7.9E-03 |  5.4  3.8E-02  OK|
 | E-Diss.K             | 0.59 | 5.6E-04 | 1.1E-02 |  7.3  1.3E-02  OK|
 +----------------------+------+---------+---------+------------------+

 ======================================================================
 OUTER LOOP ITERATION =  413 (    9) CPU SECONDS = 3.112E+02 (1.189E+01)
 ----------------------------------------------------------------------
 |       Equation       | Rate | RMS Res | Max Res |  Linear Solution |
 +----------------------+------+---------+---------+------------------+
 | U-Mom                | 0.81 | 2.1E-04 | 4.5E-03 |       8.3E-02  OK|
 | V-Mom                | 0.89 | 2.5E-04 | 4.1E-03 |       7.8E-02  OK|
 | W-Mom                | 0.93 | 1.3E-04 | 2.8E-03 |       8.5E-02  OK|
 | P-Mass               | 0.96 | 3.8E-05 | 8.3E-04 |  9.4  7.3E-02  OK|
 +----------------------+------+---------+---------+------------------+
 | H-Energy             | 0.84 | 4.0E-04 | 3.9E-03 |  5.4  5.0E-02  OK|
 +----------------------+------+---------+---------+------------------+
 | K-TurbKE             | 0.84 | 4.9E-04 | 8.6E-03 |  5.4  5.3E-02  OK|
 | E-Diss.K             | 0.96 | 5.4E-04 | 1.5E-02 |  7.3  1.2E-02  OK|
 +----------------------+------+---------+---------+------------------+

 ======================================================================
 OUTER LOOP ITERATION =  414 (   10) CPU SECONDS = 3.122E+02 (1.293E+01)
 ----------------------------------------------------------------------
 |       Equation       | Rate | RMS Res | Max Res |  Linear Solution |
 +----------------------+------+---------+---------+------------------+
 | U-Mom                | 0.84 | 1.8E-04 | 3.7E-03 |       8.7E-02  OK|
 | V-Mom                | 0.91 | 2.3E-04 | 4.3E-03 |       8.0E-02  OK|
 | W-Mom                | 0.95 | 1.2E-04 | 2.7E-03 |       9.1E-02  OK|
 | P-Mass               | 0.96 | 3.6E-05 | 5.6E-04 |  9.4  8.9E-02  OK|
 +----------------------+------+---------+---------+------------------+
 | H-Energy             | 0.85 | 3.4E-04 | 3.1E-03 |  5.4  5.1E-02  OK|
 +----------------------+------+---------+---------+------------------+
 | K-TurbKE             | 0.89 | 4.3E-04 | 9.3E-03 |  5.4  6.2E-02  OK|
 | E-Diss.K             | 1.13 | 6.1E-04 | 1.7E-02 |  7.3  1.1E-02  OK|
 +----------------------+------+---------+---------+------------------+

 ======================================================================
 OUTER LOOP ITERATION =  415 (   11) CPU SECONDS = 3.132E+02 (1.397E+01)
 ----------------------------------------------------------------------
 |       Equation       | Rate | RMS Res | Max Res |  Linear Solution |
 +----------------------+------+---------+---------+------------------+
 | U-Mom                | 0.86 | 1.5E-04 | 3.2E-03 |       3.3E-02  OK|
 | V-Mom                | 0.90 | 2.0E-04 | 4.1E-03 |       3.0E-02  OK|
 | W-Mom                | 0.94 | 1.1E-04 | 2.5E-03 |       4.7E-02  OK|
 | P-Mass               | 0.94 | 3.4E-05 | 4.1E-04 | 13.5  3.7E-02  OK|
 +----------------------+------+---------+---------+------------------+
 | H-Energy             | 0.88 | 3.0E-04 | 2.9E-03 |  5.4  5.3E-02  OK|
 +----------------------+------+---------+---------+------------------+
 | K-TurbKE             | 0.93 | 4.0E-04 | 7.1E-03 |  5.4  6.0E-02  OK|
 | E-Diss.K             | 1.15 | 7.0E-04 | 1.9E-02 |  7.3  1.1E-02  OK|
 +----------------------+------+---------+---------+------------------+

 ======================================================================
 |                        Timescale Information                       |
 ----------------------------------------------------------------------
 |       Equation       |         Type          |      Timescale      |
 +----------------------+-----------------------+---------------------+
 | U-Mom                | Auto Timescale        |     1.68744E-01     |
 | V-Mom                | Auto Timescale        |     1.68744E-01     |
 | W-Mom                | Auto Timescale        |     1.68744E-01     |
 +----------------------+-----------------------+---------------------+
 | H-Energy             | Auto Timescale        |     1.68744E-01     |
 +----------------------+-----------------------+---------------------+
 | K-TurbKE             | Auto Timescale        |     1.68744E-01     |
 | E-Diss.K             | Auto Timescale        |     1.68744E-01     |
 +----------------------+-----------------------+---------------------+

 ======================================================================
 OUTER LOOP ITERATION =  416 (   12) CPU SECONDS = 3.143E+02 (1.504E+01)
 ----------------------------------------------------------------------
 |       Equation       | Rate | RMS Res | Max Res |  Linear Solution |
 +----------------------+------+---------+---------+------------------+
 | U-Mom                | 0.88 | 1.4E-04 | 2.9E-03 |       3.0E-02  OK|
 | V-Mom                | 0.89 | 1.8E-04 | 3.9E-03 |       2.7E-02  OK|
 | W-Mom                | 0.94 | 1.1E-04 | 2.3E-03 |       4.0E-02  OK|
 | P-Mass               | 0.99 | 3.4E-05 | 4.0E-04 | 13.5  3.4E-02  OK|
 +----------------------+------+---------+---------+------------------+
 | H-Energy             | 0.88 | 2.6E-04 | 2.6E-03 |  5.4  5.2E-02  OK|
 +----------------------+------+---------+---------+------------------+
 | K-TurbKE             | 0.96 | 3.8E-04 | 6.8E-03 |  5.4  5.7E-02  OK|
 | E-Diss.K             | 1.01 | 7.1E-04 | 1.9E-02 |  7.3  1.2E-02  OK|
 +----------------------+------+---------+---------+------------------+

 ======================================================================
 OUTER LOOP ITERATION =  417 (   13) CPU SECONDS = 3.154E+02 (1.612E+01)
 ----------------------------------------------------------------------
 |       Equation       | Rate | RMS Res | Max Res |  Linear Solution |
 +----------------------+------+---------+---------+------------------+
 | U-Mom                | 0.91 | 1.2E-04 | 2.6E-03 |       2.9E-02  OK|
 | V-Mom                | 0.90 | 1.6E-04 | 3.6E-03 |       2.6E-02  OK|
 | W-Mom                | 0.92 | 9.9E-05 | 2.2E-03 |       4.2E-02  OK|
 | P-Mass               | 0.91 | 3.1E-05 | 3.4E-04 | 13.5  3.6E-02  OK|
 +----------------------+------+---------+---------+------------------+
 | H-Energy             | 0.88 | 2.3E-04 | 2.0E-03 |  5.4  5.2E-02  OK|
 +----------------------+------+---------+---------+------------------+
 | K-TurbKE             | 0.98 | 3.8E-04 | 6.2E-03 |  5.4  5.3E-02  OK|
 | E-Diss.K             | 0.97 | 6.8E-04 | 1.7E-02 |  7.3  1.3E-02  OK|
 +----------------------+------+---------+---------+------------------+

 ======================================================================
 OUTER LOOP ITERATION =  418 (   14) CPU SECONDS = 3.165E+02 (1.720E+01)
 ----------------------------------------------------------------------
 |       Equation       | Rate | RMS Res | Max Res |  Linear Solution |
 +----------------------+------+---------+---------+------------------+
 | U-Mom                | 0.92 | 1.1E-04 | 2.6E-03 |       2.9E-02  OK|
 | V-Mom                | 0.91 | 1.5E-04 | 3.4E-03 |       2.6E-02  OK|
 | W-Mom                | 0.91 | 9.0E-05 | 2.0E-03 |       4.6E-02  OK|
 | P-Mass               | 0.92 | 2.8E-05 | 3.0E-04 | 13.5  3.7E-02  OK|
 +----------------------+------+---------+---------+------------------+
 | H-Energy             | 0.89 | 2.1E-04 | 2.6E-03 |  5.4  5.1E-02  OK|
 +----------------------+------+---------+---------+------------------+
 | K-TurbKE             | 0.99 | 3.7E-04 | 5.1E-03 |  5.4  5.1E-02  OK|
 | E-Diss.K             | 0.95 | 6.5E-04 | 1.6E-02 |  7.2  1.3E-02  OK|
 +----------------------+------+---------+---------+------------------+

 ======================================================================
 OUTER LOOP ITERATION =  419 (   15) CPU SECONDS = 3.175E+02 (1.827E+01)
 ----------------------------------------------------------------------
 |       Equation       | Rate | RMS Res | Max Res |  Linear Solution |
 +----------------------+------+---------+---------+------------------+
 | U-Mom                | 0.94 | 1.1E-04 | 3.2E-03 |       2.9E-02  OK|
 | V-Mom                | 0.90 | 1.3E-04 | 3.2E-03 |       2.6E-02  OK|
 | W-Mom                | 0.90 | 8.2E-05 | 1.9E-03 |       5.1E-02  OK|
 | P-Mass               | 0.93 | 2.6E-05 | 2.6E-04 | 13.5  3.8E-02  OK|
 +----------------------+------+---------+---------+------------------+
 | H-Energy             | 0.89 | 1.9E-04 | 2.0E-03 |  5.4  4.9E-02  OK|
 +----------------------+------+---------+---------+------------------+
 | K-TurbKE             | 1.00 | 3.7E-04 | 3.6E-03 |  5.4  4.9E-02  OK|
 | E-Diss.K             | 0.95 | 6.2E-04 | 1.4E-02 |  7.2  1.4E-02  OK|
 +----------------------+------+---------+---------+------------------+

 ======================================================================
 OUTER LOOP ITERATION =  420 (   16) CPU SECONDS = 3.186E+02 (1.935E+01)
 ----------------------------------------------------------------------
 |       Equation       | Rate | RMS Res | Max Res |  Linear Solution |
 +----------------------+------+---------+---------+------------------+
 | U-Mom                | 0.95 | 1.0E-04 | 3.6E-03 |       2.9E-02  OK|
 | V-Mom                | 0.91 | 1.2E-04 | 3.0E-03 |       2.7E-02  OK|
 | W-Mom                | 0.90 | 7.4E-05 | 1.8E-03 |       5.6E-02  OK|
 | P-Mass               | 0.93 | 2.4E-05 | 2.3E-04 | 13.5  3.9E-02  OK|
 +----------------------+------+---------+---------+------------------+
 | H-Energy             | 0.90 | 1.7E-04 | 1.7E-03 |  5.4  4.8E-02  OK|
 +----------------------+------+---------+---------+------------------+
 | K-TurbKE             | 1.00 | 3.7E-04 | 3.0E-03 |  5.4  4.9E-02  OK|
 | E-Diss.K             | 0.95 | 5.9E-04 | 1.3E-02 |  7.2  1.4E-02  OK|
 +----------------------+------+---------+---------+------------------+

 ======================================================================
 |                        Timescale Information                       |
 ----------------------------------------------------------------------
 |       Equation       |         Type          |      Timescale      |
 +----------------------+-----------------------+---------------------+
 | U-Mom                | Auto Timescale        |     1.66575E-01     |
 | V-Mom                | Auto Timescale        |     1.66575E-01     |
 | W-Mom                | Auto Timescale        |     1.66575E-01     |
 +----------------------+-----------------------+---------------------+
 | H-Energy             | Auto Timescale        |     1.66575E-01     |
 +----------------------+-----------------------+---------------------+
 | K-TurbKE             | Auto Timescale        |     1.66575E-01     |
 | E-Diss.K             | Auto Timescale        |     1.66575E-01     |
 +----------------------+-----------------------+---------------------+

 ======================================================================
 OUTER LOOP ITERATION =  421 (   17) CPU SECONDS = 3.197E+02 (2.043E+01)
 ----------------------------------------------------------------------
 |       Equation       | Rate | RMS Res | Max Res |  Linear Solution |
 +----------------------+------+---------+---------+------------------+
 | U-Mom                | 0.96 | 9.6E-05 | 4.0E-03 |       2.9E-02  OK|
 | V-Mom                | 0.92 | 1.1E-04 | 2.8E-03 |       2.7E-02  OK|
 | W-Mom                | 0.90 | 6.6E-05 | 1.8E-03 |       6.1E-02  OK|
 | P-Mass               | 0.94 | 2.3E-05 | 2.1E-04 | 13.5  4.0E-02  OK|
 +----------------------+------+---------+---------+------------------+
 | H-Energy             | 0.91 | 1.5E-04 | 1.9E-03 |  5.4  4.7E-02  OK|
 +----------------------+------+---------+---------+------------------+
 | K-TurbKE             | 0.99 | 3.7E-04 | 2.2E-03 |  5.4  4.7E-02  OK|
 | E-Diss.K             | 0.95 | 5.6E-04 | 1.2E-02 |  7.2  1.5E-02  OK|
 +----------------------+------+---------+---------+------------------+

 ======================================================================
 OUTER LOOP ITERATION =  422 (   18) CPU SECONDS = 3.208E+02 (2.153E+01)
 ----------------------------------------------------------------------
 |       Equation       | Rate | RMS Res | Max Res |  Linear Solution |
 +----------------------+------+---------+---------+------------------+
 | U-Mom                | 0.96 | 9.2E-05 | 4.2E-03 |       2.9E-02  OK|
 | V-Mom                | 0.93 | 1.0E-04 | 2.9E-03 |       2.8E-02  OK|
 | W-Mom                | 0.90 | 6.0E-05 | 1.8E-03 |       6.7E-02  OK|
 | P-Mass               | 0.94 | 2.2E-05 | 1.9E-04 | 13.5  4.1E-02  OK|
 +----------------------+------+---------+---------+------------------+
 | H-Energy             | 0.91 | 1.4E-04 | 1.8E-03 |  5.4  4.8E-02  OK|
 +----------------------+------+---------+---------+------------------+
 | K-TurbKE             | 0.99 | 3.6E-04 | 2.0E-03 |  5.4  4.7E-02  OK|
 | E-Diss.K             | 0.96 | 5.3E-04 | 1.1E-02 |  7.2  1.5E-02  OK|
 +----------------------+------+---------+---------+------------------+

 ======================================================================
 OUTER LOOP ITERATION =  423 (   19) CPU SECONDS = 3.219E+02 (2.261E+01)
 ----------------------------------------------------------------------
 |       Equation       | Rate | RMS Res | Max Res |  Linear Solution |
 +----------------------+------+---------+---------+------------------+
 | U-Mom                | 0.96 | 8.9E-05 | 4.3E-03 |       3.0E-02  OK|
 | V-Mom                | 0.94 | 9.9E-05 | 3.1E-03 |       2.8E-02  OK|
 | W-Mom                | 0.91 | 5.4E-05 | 1.7E-03 |       7.4E-02  OK|
 | P-Mass               | 0.94 | 2.0E-05 | 1.7E-04 | 13.5  4.2E-02  OK|
 +----------------------+------+---------+---------+------------------+
 | H-Energy             | 0.92 | 1.3E-04 | 1.5E-03 |  5.4  5.0E-02  OK|
 +----------------------+------+---------+---------+------------------+
 | K-TurbKE             | 0.98 | 3.6E-04 | 1.8E-03 |  5.4  4.7E-02  OK|
 | E-Diss.K             | 0.96 | 5.1E-04 | 1.0E-02 |  7.2  1.5E-02  OK|
 +----------------------+------+---------+---------+------------------+

 ======================================================================
 OUTER LOOP ITERATION =  424 (   20) CPU SECONDS = 3.230E+02 (2.369E+01)
 ----------------------------------------------------------------------
 |       Equation       | Rate | RMS Res | Max Res |  Linear Solution |
 +----------------------+------+---------+---------+------------------+
 | U-Mom                | 0.97 | 8.6E-05 | 4.3E-03 |       3.0E-02  OK|
 | V-Mom                | 0.95 | 9.4E-05 | 3.2E-03 |       2.9E-02  OK|
 | W-Mom                | 0.92 | 5.0E-05 | 1.7E-03 |       7.9E-02  OK|
 | P-Mass               | 0.95 | 1.9E-05 | 1.5E-04 | 13.5  4.4E-02  OK|
 +----------------------+------+---------+---------+------------------+
 | H-Energy             | 0.93 | 1.2E-04 | 1.4E-03 |  5.4  5.4E-02  OK|
 +----------------------+------+---------+---------+------------------+
 | K-TurbKE             | 0.98 | 3.5E-04 | 1.9E-03 |  5.4  4.7E-02  OK|
 | E-Diss.K             | 0.96 | 4.9E-04 | 9.5E-03 |  7.2  1.5E-02  OK|
 +----------------------+------+---------+---------+------------------+

 ======================================================================
 OUTER LOOP ITERATION =  425 (   21) CPU SECONDS = 3.240E+02 (2.477E+01)
 ----------------------------------------------------------------------
 |       Equation       | Rate | RMS Res | Max Res |  Linear Solution |
 +----------------------+------+---------+---------+------------------+
 | U-Mom                | 0.97 | 8.4E-05 | 4.3E-03 |       3.0E-02  OK|
 | V-Mom                | 0.96 | 9.0E-05 | 3.3E-03 |       2.9E-02  OK|
 | W-Mom                | 0.94 | 4.7E-05 | 1.6E-03 |       8.4E-02  OK|
 | P-Mass               | 0.95 | 1.8E-05 | 1.5E-04 | 13.5  4.5E-02  OK|
 +----------------------+------+---------+---------+------------------+
 | H-Energy             | 0.94 | 1.1E-04 | 1.3E-03 |  5.4  5.7E-02  OK|
 +----------------------+------+---------+---------+------------------+
 | K-TurbKE             | 0.97 | 3.4E-04 | 1.9E-03 |  5.4  4.7E-02  OK|
 | E-Diss.K             | 0.95 | 4.7E-04 | 8.7E-03 |  7.3  1.5E-02  OK|
 +----------------------+------+---------+---------+------------------+

 ======================================================================
 |                        Timescale Information                       |
 ----------------------------------------------------------------------
 |       Equation       |         Type          |      Timescale      |
 +----------------------+-----------------------+---------------------+
 | U-Mom                | Auto Timescale        |     1.64268E-01     |
 | V-Mom                | Auto Timescale        |     1.64268E-01     |
 | W-Mom                | Auto Timescale        |     1.64268E-01     |
 +----------------------+-----------------------+---------------------+
 | H-Energy             | Auto Timescale        |     1.64268E-01     |
 +----------------------+-----------------------+---------------------+
 | K-TurbKE             | Auto Timescale        |     1.64268E-01     |
 | E-Diss.K             | Auto Timescale        |     1.64268E-01     |
 +----------------------+-----------------------+---------------------+

 ======================================================================
 OUTER LOOP ITERATION =  426 (   22) CPU SECONDS = 3.251E+02 (2.585E+01)
 ----------------------------------------------------------------------
 |       Equation       | Rate | RMS Res | Max Res |  Linear Solution |
 +----------------------+------+---------+---------+------------------+
 | U-Mom                | 0.97 | 8.1E-05 | 4.2E-03 |       2.9E-02  OK|
 | V-Mom                | 0.97 | 8.7E-05 | 3.3E-03 |       2.9E-02  OK|
 | W-Mom                | 0.96 | 4.5E-05 | 1.5E-03 |       8.5E-02  OK|
 | P-Mass               | 0.95 | 1.7E-05 | 1.5E-04 | 13.5  4.5E-02  OK|
 +----------------------+------+---------+---------+------------------+
 | H-Energy             | 0.93 | 1.0E-04 | 1.2E-03 |  5.4  6.0E-02  OK|
 +----------------------+------+---------+---------+------------------+
 | K-TurbKE             | 0.97 | 3.3E-04 | 1.8E-03 |  5.4  4.6E-02  OK|
 | E-Diss.K             | 0.94 | 4.4E-04 | 7.9E-03 |  7.2  1.5E-02  OK|
 +----------------------+------+---------+---------+------------------+

 ======================================================================
 OUTER LOOP ITERATION =  427 (   23) CPU SECONDS = 3.262E+02 (2.692E+01)
 ----------------------------------------------------------------------
 |       Equation       | Rate | RMS Res | Max Res |  Linear Solution |
 +----------------------+------+---------+---------+------------------+
 | U-Mom                | 0.97 | 7.9E-05 | 4.1E-03 |       2.9E-02  OK|
 | V-Mom                | 0.97 | 8.4E-05 | 3.3E-03 |       2.9E-02  OK|
 | W-Mom                | 0.98 | 4.4E-05 | 1.5E-03 |       8.7E-02  OK|
 | P-Mass               | 0.95 | 1.7E-05 | 1.5E-04 | 13.5  4.6E-02  OK|
 +----------------------+------+---------+---------+------------------+
 | H-Energy             | 0.94 | 9.6E-05 | 1.0E-03 |  5.4  6.4E-02  OK|
 +----------------------+------+---------+---------+------------------+
 | K-TurbKE             | 0.96 | 3.2E-04 | 1.8E-03 |  5.4  4.6E-02  OK|
 | E-Diss.K             | 0.94 | 4.1E-04 | 7.3E-03 |  7.2  1.6E-02  OK|
 +----------------------+------+---------+---------+------------------+
                   
 CFD Solver finished: Fri Dec  7 16:08:27 2018
 CFD Solver wall clock seconds: 2.4527E+01

 ======================================================================
              Termination and Interrupt Condition Summary
 ======================================================================
    
 CFD Solver: All target criteria reached
   (Equation residuals)

 ======================================================================
              Boundary Flow and Total Source Term Summary
 ======================================================================

 +--------------------------------------------------------------------+
 |                               U-Mom                                |
 +--------------------------------------------------------------------+
 Boundary         : Default Domain Default                 -4.0525E+01
 Boundary         : in1                                     5.7434E-05
 Boundary         : in2                                    -6.8769E-05
 Boundary         : out                                     3.4224E+01
                                                           -----------
 Domain Imbalance :                                        -6.3009E+00

 +--------------------------------------------------------------------+
 |                               V-Mom                                |
 +--------------------------------------------------------------------+
 Boundary         : Default Domain Default                  1.1866E+02
 Boundary         : in1                                     6.9585E+04
 Boundary         : in2                                    -6.9713E+04
 Boundary         : out                                     1.4286E+01
                                                           -----------
 Domain Imbalance :                                         4.3331E+00

 +--------------------------------------------------------------------+
 |                               W-Mom                                |
 +--------------------------------------------------------------------+
 Boundary         : Default Domain Default                 -1.2214E+04
 Boundary         : in1                                    -1.5378E-05
 Boundary         : in2                                    -6.5641E-06
 Boundary         : out                                     1.2249E+04
                                                           -----------
 Domain Imbalance :                                         3.4830E+01

 +--------------------------------------------------------------------+
 |                               P-Mass                               |
 +--------------------------------------------------------------------+
 Boundary         : in1                                     1.5000E+03
 Boundary         : in2                                     1.5000E+03
 Boundary         : out                                    -2.9995E+03
                                                           -----------
 Domain Imbalance :                                         4.5361E-01

 +--------------------------------------------------------------------+
 |                              H-Energy                              |
 +--------------------------------------------------------------------+
 Boundary         : in1                                     1.0569E+08
 Boundary         : in2                                    -8.2484E+07
 Boundary         : out                                    -2.3105E+07
                                                           -----------
 Domain Imbalance :                                         1.0362E+05


 +--------------------------------------------------------------------+
 |                     Normalised Imbalance Summary                   |
 +--------------------------------------------------------------------+
 |       Equation       |      Maximum Flow     |     Imbalance (%)   |
 +--------------------------------------------------------------------+
 | U-Mom                |       6.9713E+04      |       -0.0090       |
 | V-Mom                |       6.9713E+04      |        0.0062       |
 | W-Mom                |       6.9713E+04      |        0.0500       |
 | P-Mass               |       2.9995E+03      |        0.0151       |
 +----------------------+-----------------------+---------------------+
 | H-Energy             |       1.0569E+08      |        0.0980       |
 +----------------------+-----------------------+---------------------+

 ======================================================================
                     Wall Force and Moment Summary
 ======================================================================
                                                                          
 Notes:
 1. Pressure integrals exclude the reference pressure.  To include
    it, set the expert parameter 'include pref in forces = t'.


 +--------------------------------------------------------------------+
 |                      Pressure Force On Walls                       |
 +--------------------------------------------------------------------+
                                    X-Comp.      Y-Comp.      Z-Comp.

 Domain Group: Default Domain

 Default Domain Default           4.0562E+01  -1.2150E+02   1.2313E+04
                                  -----------  -----------  -----------
 Domain Group Totals :            4.0562E+01  -1.2150E+02   1.2313E+04


 +--------------------------------------------------------------------+
 |                       Viscous Force On Walls                       |
 +--------------------------------------------------------------------+
                                    X-Comp.      Y-Comp.      Z-Comp.

 Domain Group: Default Domain

 Default Domain Default          -3.6749E-02   2.8676E+00  -9.8938E+01
                                  -----------  -----------  -----------
 Domain Group Totals :           -3.6749E-02   2.8676E+00  -9.8938E+01


 +--------------------------------------------------------------------+
 |                      Pressure Moment On Walls                      |
 +--------------------------------------------------------------------+
                                    X-Comp.      Y-Comp.      Z-Comp.

 Domain Group: Default Domain

 Default Domain Default           8.7142E+01   5.7005E+00  -1.2068E+05
                                  -----------  -----------  -----------
 Domain Group Totals :            8.7142E+01   5.7005E+00  -1.2068E+05


 +--------------------------------------------------------------------+
 |                       Viscous Moment On Walls                      |
 +--------------------------------------------------------------------+
                                    X-Comp.      Y-Comp.      Z-Comp.

 Domain Group: Default Domain

 Default Domain Default          -5.4615E+00  -6.4704E+00  -6.6605E+03
                                  -----------  -----------  -----------
 Domain Group Totals :           -5.4615E+00  -6.4704E+00  -6.6605E+03


 +--------------------------------------------------------------------+
 |                   Locations of Maximum Residuals                   |
 +--------------------------------------------------------------------+
 |       Equation       |      Domain Name      |     Node Number     |
 +--------------------------------------------------------------------+
 | U-Mom                | Default Domain        |          24819      |
 | V-Mom                | Default Domain        |          24819      |
 | W-Mom                | Default Domain        |          24837      |
 | P-Mass               | Default Domain        |          26065      |
 +----------------------+-----------------------+---------------------+
 | H-Energy             | Default Domain        |          25264      |
 +----------------------+-----------------------+---------------------+
 | K-TurbKE             | Default Domain        |             65      |
 | E-Diss.K             | Default Domain        |          26396      |
 +----------------------+-----------------------+---------------------+

 ======================================================================
 |                     False Transient Information                    |
 +--------------------------------------------------------------------+
 |       Equation       |         Type          | Elapsed Pseudo-Time |
 +--------------------------------------------------------------------+
 | U-Mom                | Auto Timescale        |     3.82379E+00     |
 | V-Mom                | Auto Timescale        |     3.82379E+00     |
 | W-Mom                | Auto Timescale        |     3.82379E+00     |
 +----------------------+-----------------------+---------------------+
 | H-Energy             | Auto Timescale        |     3.82379E+00     |
 +----------------------+-----------------------+---------------------+
 | K-TurbKE             | Auto Timescale        |     3.82379E+00     |
 | E-Diss.K             | Auto Timescale        |     3.82379E+00     |
 +----------------------+-----------------------+---------------------+

 +--------------------------------------------------------------------+
 |                     Average Scale Information                      |
 +--------------------------------------------------------------------+

 Domain Name : Default Domain
     Global Length                                         = 3.2201E+00
     Minimum Extent                                        = 4.0000E+00
     Maximum Extent                                        = 6.0000E+00
     Density                                               = 9.9700E+02
     Dynamic Viscosity                                     = 8.8990E-04
     Velocity                                              = 6.1455E+00
     Advection Time                                        = 5.2398E-01
     Reynolds Number                                       = 2.2171E+07
     Thermal Conductivity                                  = 6.0690E-01
     Specific Heat Capacity at Constant Pressure           = 4.1817E+03
     Prandtl Number                                        = 6.1316E+00
     Temperature Range                                     = 3.0018E+01

 +--------------------------------------------------------------------+
 |                     Variable Range Information                     |
 +--------------------------------------------------------------------+

 Domain Name : Default Domain
 +--------------------------------------------------------------------+
 |      Variable Name                         |    min    |    max    |
 +--------------------------------------------------------------------+
 | Density                                    |  9.97E+02 |  9.97E+02 |
 | Specific Heat Capacity at Constant Pressure|  4.18E+03 |  4.18E+03 |
 | Dynamic Viscosity                          |  8.90E-04 |  8.90E-04 |
 | Thermal Conductivity                       |  6.07E-01 |  6.07E-01 |
 | Static Entropy                             | -1.89E+02 |  2.30E+02 |
 | Velocity u                                 | -7.26E+00 |  7.26E+00 |
 | Velocity v                                 | -7.60E+00 |  7.61E+00 |
 | Velocity w                                 | -5.58E+00 |  2.08E+00 |
 | Pressure                                   | -1.15E+04 |  8.82E+04 |
 | Turbulence Kinetic Energy                  |  1.02E-04 |  4.83E+00 |
 | Turbulence Eddy Dissipation                |  3.12E-04 |  2.89E+02 |
 | Eddy Viscosity                             |  1.37E-03 |  3.41E+02 |
 | Temperature                                |  2.85E+02 |  3.15E+02 |
 | Static Enthalpy                            | -5.50E+04 |  7.05E+04 |
 +--------------------------------------------------------------------+

 +--------------------------------------------------------------------+
 |               CPU Requirements of Numerical Solution               |
 +--------------------------------------------------------------------+

 Subsystem Name                  Discretization       Linear Solution
                                (secs.   %total)     (secs.   %total) 
 ----------------------------------------------------------------------
 Momentum and Mass              8.59E+00  28.0 %     2.65E+00   8.6 %
 Heat Transfer                  2.86E+00   9.3 %     9.60E-01   3.1 %
 TurbKE and Diss.K              4.42E+00  14.4 %     2.10E+00   6.8 %
                                -------- -------     --------  ------
 Subsystem Summary              1.59E+01  51.7 %     5.71E+00  18.6 %

 File Reading                   4.20E-02    0.1 %
 Variable Updates               2.79E+00    9.1 %
 File Writing                   3.64E-01    1.2 %
 Miscellaneous                  5.96E+00   19.4 %
                                --------
 Total                          3.07E+01

 +--------------------------------------------------------------------+
 |                   Job Information at End of Run                    |
 +--------------------------------------------------------------------+

 Host computer:  ENPC-LAB118 (PID:1240)

 Job finished:   Fri Dec  7 16:08:30 2018

 Total wall clock time: 3.074E+01 seconds
             or: (          0:         0:         0:    30.738 )
                 (       Days:     Hours:   Minutes:   Seconds )

End of solution stage.

 +--------------------------------------------------------------------+
 | The results from this run of the ANSYS CFX Solver have been        |
 | written to                                                         |
 | H:/dos/CFD/CW/CFD-Static-Mixer/StaticMixerDX_pending/dp9_CFX_Solu- |
 | tion/Fluid Flow CFX_011.res                                        |
 +--------------------------------------------------------------------+


 +--------------------------------------------------------------------+
 | For CFX runs launched from Workbench, the final locations of       |
 | directories and files generated may differ from those shown.       |
 +--------------------------------------------------------------------+


This run of the ANSYS CFX Solver has finished.
