 This run of the CFX Release 19.1 Solver started at 14:53:08 on 07 Dec
 2018 by user jc2182 on ENPC-LAB119 (intel_xeon64.sse2_winnt) using the
 command:
 
  "C:\Program Files\ANSYS Inc\v191\CFX\bin\perllib\cfx5solve.pl" -batch
    -ccl runInput.ccl -fullname "Fluid Flow CFX_001"
 
 Release 19.1
 
  Point Releases and Patches installed:
  ANSYS, Inc. Products Release 19.1
  SpaceClaim Release 19.1
  Autodyn Release 19.1
  LS-DYNA Release 19.1
  CFD-Post only Release 19.1
  CFX (includes CFD-Post) Release 19.1
  Chemkin Release 19.1
  EnSight Release 19.1
  FENSAP-ICE Release 19.1
  Fluent (includes CFD-Post) Release 19.1
  Forte Release 19.1
  Polyflow (includes CFD-Post) Release 19.1
  TurboGrid Release 19.1
  ICEM CFD Release 19.1
  Customization Files for User Programmable Features Release 19.1
  Mechanical Products Release 19.1
  Icepak (includes CFD-Post) Release 19.1
  Remote Solve Manager Standalone Services Release 19.1
  ACIS Geometry Interface Release 19.1
  Catia, Version 5 Geometry Interface Release 19.1
  NX Geometry Interface Release 19.1
  Parasolid Geometry Interface  Release 19.1
  ANSYS, Inc. License Manager Release 19.1
 
 Setting up CFX Solver run ...
 
 
 +--------------------------------------------------------------------+
 |                                                                    |
 |                    CFX Command Language for Run                    |
 |                                                                    |
 +--------------------------------------------------------------------+
 
 LIBRARY:
   CEL:
     EXPRESSIONS:
       inMassFlow = 1500 [kg s^-1]
     END
   END
   MATERIAL: Water
     Material Description = Water (liquid)
     Material Group = Water Data, Constant Property Liquids
     Option = Pure Substance
     Thermodynamic State = Liquid
     PROPERTIES:
       Option = General Material
       EQUATION OF STATE:
         Density = 997.0 [kg m^-3]
         Molar Mass = 18.02 [kg kmol^-1]
         Option = Value
       END
       SPECIFIC HEAT CAPACITY:
         Option = Value
         Specific Heat Capacity = 4181.7 [J kg^-1 K^-1]
         Specific Heat Type = Constant Pressure
       END
       REFERENCE STATE:
         Option = Specified Point
         Reference Pressure = 1 [atm]
         Reference Specific Enthalpy = 0.0 [J/kg]
         Reference Specific Entropy = 0.0 [J/kg/K]
         Reference Temperature = 25 [C]
       END
       DYNAMIC VISCOSITY:
         Dynamic Viscosity = 8.899E-4 [kg m^-1 s^-1]
         Option = Value
       END
       THERMAL CONDUCTIVITY:
         Option = Value
         Thermal Conductivity = 0.6069 [W m^-1 K^-1]
       END
       ABSORPTION COEFFICIENT:
         Absorption Coefficient = 1.0 [m^-1]
         Option = Value
       END
       SCATTERING COEFFICIENT:
         Option = Value
         Scattering Coefficient = 0.0 [m^-1]
       END
       REFRACTIVE INDEX:
         Option = Value
         Refractive Index = 1.0 [m m^-1]
       END
       THERMAL EXPANSIVITY:
         Option = Value
         Thermal Expansivity = 2.57E-04 [K^-1]
       END
     END
   END
 END
 FLOW: Flow Analysis 1
   SOLUTION UNITS:
     Angle Units = [rad]
     Length Units = [m]
     Mass Units = [kg]
     Solid Angle Units = [sr]
     Temperature Units = [K]
     Time Units = [s]
   END
   ANALYSIS TYPE:
     Option = Transient
     EXTERNAL SOLVER COUPLING:
       Option = None
     END
     INITIAL TIME:
       Option = Value
       Time = 0 [s]
     END
     TIME DURATION:
       Option = Total Time
       Total Time = 30 [s]
     END
     TIME STEPS:
       Option = Timesteps
       Timesteps = 0.1 [s]
     END
   END
   DOMAIN: Default Domain
     Coord Frame = Coord 0
     Domain Type = Fluid
     Location = B17
     BOUNDARY: Default Domain Default
       Boundary Type = WALL
       Location = F12.17,F14.17,F16.17,F19.17,F20.17,F21.17,F29.17,F30.17
       BOUNDARY CONDITIONS:
         HEAT TRANSFER:
           Option = Adiabatic
         END
         MASS AND MOMENTUM:
           Option = No Slip Wall
         END
         WALL ROUGHNESS:
           Option = Smooth Wall
         END
       END
     END
     BOUNDARY: in1
       Boundary Type = INLET
       Location = in1
       BOUNDARY CONDITIONS:
         FLOW DIRECTION:
           Option = Normal to Boundary Condition
         END
         FLOW REGIME:
           Option = Subsonic
         END
         HEAT TRANSFER:
           Option = Static Temperature
           Static Temperature = 315 [K]
         END
         MASS AND MOMENTUM:
           Mass Flow Rate = inMassFlow
           Mass Flow Rate Area = As Specified
           Option = Mass Flow Rate
         END
         TURBULENCE:
           Option = Medium Intensity and Eddy Viscosity Ratio
         END
       END
     END
     BOUNDARY: in2
       Boundary Type = INLET
       Location = in2
       BOUNDARY CONDITIONS:
         FLOW DIRECTION:
           Option = Normal to Boundary Condition
         END
         FLOW REGIME:
           Option = Subsonic
         END
         HEAT TRANSFER:
           Option = Static Temperature
           Static Temperature = 285 [K]
         END
         MASS AND MOMENTUM:
           Mass Flow Rate = inMassFlow
           Mass Flow Rate Area = As Specified
           Option = Mass Flow Rate
         END
         TURBULENCE:
           Option = Medium Intensity and Eddy Viscosity Ratio
         END
       END
     END
     BOUNDARY: out
       Boundary Type = OUTLET
       Location = out
       BOUNDARY CONDITIONS:
         FLOW REGIME:
           Option = Subsonic
         END
         MASS AND MOMENTUM:
           Option = Static Pressure
           Relative Pressure = 0 [Pa]
         END
       END
     END
     DOMAIN MODELS:
       BUOYANCY MODEL:
         Option = Non Buoyant
       END
       DOMAIN MOTION:
         Option = Stationary
       END
       MESH DEFORMATION:
         Option = None
       END
       REFERENCE PRESSURE:
         Reference Pressure = 1 [atm]
       END
     END
     FLUID DEFINITION: Fluid 1
       Material = Water
       Option = Material Library
       MORPHOLOGY:
         Option = Continuous Fluid
       END
     END
     FLUID MODELS:
       COMBUSTION MODEL:
         Option = None
       END
       HEAT TRANSFER MODEL:
         Option = Thermal Energy
       END
       THERMAL RADIATION MODEL:
         Option = None
       END
       TURBULENCE MODEL:
         Option = Eddy Viscosity Transport Equation
       END
       TURBULENT WALL FUNCTIONS:
         Option = Scalable
       END
     END
     INITIALISATION:
       Option = Automatic
       INITIAL CONDITIONS:
         Velocity Type = Cartesian
         CARTESIAN VELOCITY COMPONENTS:
           Option = Automatic with Value
           U = 0 [m s^-1]
           V = 0 [m s^-1]
           W = 0 [m s^-1]
         END
         STATIC PRESSURE:
           Option = Automatic with Value
           Relative Pressure = 0 [Pa]
         END
         TEMPERATURE:
           Option = Automatic with Value
           Temperature = 290 [K]
         END
         TURBULENCE INITIAL CONDITIONS:
           Option = Medium Intensity and Eddy Viscosity Ratio
         END
       END
     END
   END
   OUTPUT CONTROL:
     RESULTS:
       File Compression Level = Default
       Option = Standard
     END
     TRANSIENT RESULTS: Transient Results 1
       File Compression Level = Low Speed Most Compression
       Option = Standard
       OUTPUT FREQUENCY:
         Option = Time Interval
         Time Interval = 0.4 [s]
       END
     END
   END
   SOLVER CONTROL:
     Turbulence Numerics = First Order
     ADVECTION SCHEME:
       Option = High Resolution
     END
     CONVERGENCE CONTROL:
       Maximum Number of Coefficient Loops = 10
       Minimum Number of Coefficient Loops = 1
       Timescale Control = Coefficient Loops
     END
     CONVERGENCE CRITERIA:
       Residual Target = 1.E-4
       Residual Type = RMS
     END
     TRANSIENT SCHEME:
       Option = Second Order Backward Euler
       TIMESTEP INITIALISATION:
         Option = Automatic
       END
     END
   END
 END
 COMMAND FILE:
   Version = 19.1
   Results Version = 19.1
 END
 PARAMETERIZATION:
   INPUT FIELD: inMassFlow
     Expression Name = inMassFlow
     Method = Expression
   END
 END
 SIMULATION CONTROL:
   EXECUTION CONTROL:
     EXECUTABLE SELECTION:
       Double Precision = No
       Large Problem = No
     END
     INTERPOLATOR STEP CONTROL:
       Runtime Priority = Standard
       MEMORY CONTROL:
         Memory Allocation Factor = 1.0
       END
     END
     PARALLEL HOST LIBRARY:
       HOST DEFINITION: enpclab119
         Remote Host Name = ENPC-LAB119
         Host Architecture String = winnt-amd64
         Installation Root = C:\Program Files\ANSYS Inc\v%v\CFX
       END
     END
     PARTITIONER STEP CONTROL:
       Multidomain Option = Automatic
       Runtime Priority = Standard
       MEMORY CONTROL:
         Memory Allocation Factor = 1.0
       END
       PARTITION SMOOTHING:
         Maximum Partition Smoothing Sweeps = 100
         Option = Smooth
       END
       PARTITIONING TYPE:
         MeTiS Type = k-way
         Option = MeTiS
         Partition Size Rule = Automatic
         Partition Weight Factors = 0.25000, 0.25000, 0.25000, 0.25000
       END
     END
     RUN DEFINITION:
       Run Mode = Full
       Solver Input File = Fluid Flow CFX.def
       Solver Results File = D:/CFD \
         BackUps/CFD-Static-Mixer/StaticMixerDX_pending/dp6_CFX_Solution/Flui\
         d Flow CFX_001.res
     END
     SOLVER STEP CONTROL:
       Runtime Priority = Standard
       MEMORY CONTROL:
         Memory Allocation Factor = 1.0
       END
       PARALLEL ENVIRONMENT:
         Number of Processes = 4
         Start Method = Intel MPI Local Parallel
         Parallel Host List = enpclab119*4
       END
     END
   END
 END
 
 
 +--------------------------------------------------------------------+
 |                                                                    |
 |                            Partitioning                            |
 |                                                                    |
 +--------------------------------------------------------------------+
 



 +--------------------------------------------------------------------+
 |                                                                    |
 |                     ANSYS(R) CFX(R) Partitioner                    |
 |                                                                    |
 | Release 19.1                                                       |
 | Build 19.1 2018-04-17T13:27:50.069000                              |
 | Tue Apr 17 15:02:11 GMTDT 2018                                     |
 |                                                                    |
 |                        Executable Attributes                       |
 |                                                                    |
 |           single-64bit-int32-archfort-optimised-std-lcomp          |
 |                                                                    |
 | (C) 1996-2018 ANSYS, Inc.                                          |
 |                                                                    |
 | All rights reserved. Unauthorized use, distribution or duplication |
 | is prohibited. This product is subject to U.S. laws governing      |
 | export and re-export. For full Legal Notice, see documentation.    |
 +--------------------------------------------------------------------+




 +--------------------------------------------------------------------+
 |                  Job Information at Start of Run                   |
 +--------------------------------------------------------------------+

 Run mode:       partitioning run

 Host computer:  ENPC-LAB119 (PID:2244)

 Job started:    Fri Dec  7 14:53:17 2018

 +--------------------------------------------------------------------+
 |                        License Information                         |
 +--------------------------------------------------------------------+
 
 License Cap:    ANSYS CFX Solver (Max 128K Nodes)
 License Cap:     Parallel
 License ID:     VIGO_campus_bath_ac_uk-SYSTEM-1456-1261387


 +--------------------------------------------------------------------+
 |        Memory Allocated for Run  (Actual usage may be less)        |
 +--------------------------------------------------------------------+

           | Real       | Integer    | Character | Logical  | Double
 ----------+------------+------------+-----------+----------+----------
 Mwords    |       1.29 |       5.80 |      6.85 |     0.12 |     0.90
 Mbytes    |       4.93 |      22.13 |      6.54 |     0.46 |     6.87
 ----------+------------+------------+-----------+----------+----------


 +--------------------------------------------------------------------+
 |                  Host Memory Information (Mbytes)                  |
 +--------------------------------------------------------------------+
 |          Host           |     System     |   Allocated    |   %    |
 +-------------------------+----------------+----------------+--------+
 | ENPC-LAB119             |     16241.86   |        40.92   |   0.25 |
 +-------------------------+----------------+----------------+--------+

 +--------------------------------------------------------------------+
 | The MeTiS partitioning method allocates additional memory.         |
 | Total memory usage will therefore exceed the values shown above.   |
 +--------------------------------------------------------------------+

 +--------------------------------------------------------------------+
 |                      Topology Simplification                       |
 +--------------------------------------------------------------------+

 +--------------------------------------------------------------------+
 |                       ****** Warning ******                        |
 |                                                                    |
 | Topology simplification is activated with the following            |
 | restrictions:                                                      |
 |                                                                    |
 | - Mesh regions referenced only within User Fortran and NOT         |
 |   in the command file will cause the solver to stop.               |
 | - The solver will stop during any "Edit Run in Progress" step      |
 |   if new 2D regions are referenced.                                |
 +--------------------------------------------------------------------+

 +--------------------------------------------------------------------+
 |                          Mesh Statistics                           |
 +--------------------------------------------------------------------+

 Domain Name : Default Domain

     Total Number of Nodes                                =       59360

     Total Number of Elements                             =      185630
         Total Number of Tetrahedrons                     =      114957
         Total Number of Prisms                           =       70279
         Total Number of Pyramids                         =         394

     Total Number of Faces                                =       18247

 +--------------------------------------------------------------------+
 |                     Vertex Based Partitioning                      |
 +--------------------------------------------------------------------+

 Partitioning of domain: Default Domain

 - Partitioning tool:       MeTiS multilevel k-way algorithm
 - Number of partitions:             4
 - Number of graph-nodes:        59360
 - Number of graph-edges:       578902

 +--------------------------------------------------------------------+
 |                 Iso-Partition Connection Statistics                |
 +--------------------------------------------------------------------+
 | Domains in Group          |        |           Vertices            |
 |                           | Smooth +---------+----------+----------+
 |                           | Sweeps |  Moves  |   <25%   |   <50%   |
 +---------------------------+--------+---------+----------+----------+
 | Default Domain            |     2  |       5 |       0  |      34  |
 +---------------------------+--------+---------+----------+----------+

 +--------------------------------------------------------------------+
 |                      Partitioning Information                      |
 +--------------------------------------------------------------------+

 Partitioning information for domain: Default Domain

        +------------------+------------------------+-----------------+
        |     Elements     |        Vertices        |     Faces       |
 +------+------------------+------------------------+-----------------+
 | Part |   Number     %   |   Number     %   %Ovlp |  Number     %   |
 +------+------------------+------------------------+-----------------+
 | Full |    185630        |     59360              |    18247        |
 +------+------------------+------------------------+-----------------+
 |    1 |     50459   25.8 |     16518   25.5   7.5 |     5143   27.4 |
 |    2 |     48561   24.8 |     16282   25.2   9.0 |     4325   23.0 |
 |    3 |     46073   23.5 |     15615   24.2   7.3 |     5050   26.9 |
 |    4 |     50597   25.9 |     16238   25.1   9.0 |     4268   22.7 |
 +------+------------------+------------------------+-----------------+
 | Min  |     46073   23.5 |     15615   24.2   7.3 |     4268   22.7 |
 |(part)|           (    3)|           (    3     3)|          (    4)|
 +------+------------------+------------------------+-----------------+
 | Max  |     50597   25.9 |     16518   25.5   9.0 |     5143   27.4 |
 |(part)|           (    4)|           (    1     4)|          (    1)|
 +------+------------------+------------------------+-----------------+
 | Ave  |     48923   25.0 |     16163   25.0   8.2 |     4697   25.0 |
 +------+------------------+------------------------+-----------------+
 | Sum  |    195690  100.0 |     64653  100.0       |    18786  100.0 |
 +------+------------------+------------------------+-----------------+

 +--------------------------------------------------------------------+
 |                 Partitioning CPU-Time Requirements                 |
 +--------------------------------------------------------------------+
 Preparations                   8.00E-02    2.6 %
 Low-level Mesh Partitioning    3.30E-02    1.1 %
 File Reading                   4.40E-02    1.4 %
 Partition Smoothing            8.50E-02    2.8 %
 Topology - Domain Interface    1.00E-03    0.0 %
 Topology - Global              4.00E-03    0.1 %
 Topology - Element/Face/Patch  1.00E-02    0.3 %
 Topology - Vertex              1.00E-03    0.0 %
 Data Compression               1.00E-03    0.0 %
 Variable Updates               2.00E-03    0.1 %
 File Writing                   2.80E-02    0.9 %
 Miscellaneous                  2.79E+00   90.6 %
                                --------
 Total                          3.08E+00

 +--------------------------------------------------------------------+
 |                   Job Information at End of Run                    |
 +--------------------------------------------------------------------+

 Host computer:  ENPC-LAB119 (PID:2244)

 Job finished:   Fri Dec  7 14:53:20 2018

 Total wall clock time: 3.077E+00 seconds
             or: (          0:         0:         0:     3.077 )
                 (       Days:     Hours:   Minutes:   Seconds )

 
 +--------------------------------------------------------------------+
 |                                                                    |
 |                               Solver                               |
 |                                                                    |
 +--------------------------------------------------------------------+
 



 +--------------------------------------------------------------------+
 |                                                                    |
 |                       ANSYS(R) CFX(R) Solver                       |
 |                                                                    |
 | Release 19.1                                                       |
 | Build 19.1 2018-04-17T13:27:50.069000                              |
 | Tue Apr 17 15:02:11 GMTDT 2018                                     |
 |                                                                    |
 |                        Executable Attributes                       |
 |                                                                    |
 |           single-64bit-int32-archfort-optimised-std-lcomp          |
 |                                                                    |
 | (C) 1996-2018 ANSYS, Inc.                                          |
 |                                                                    |
 | All rights reserved. Unauthorized use, distribution or duplication |
 | is prohibited. This product is subject to U.S. laws governing      |
 | export and re-export. For full Legal Notice, see documentation.    |
 +--------------------------------------------------------------------+




 +--------------------------------------------------------------------+
 |                  Job Information at Start of Run                   |
 +--------------------------------------------------------------------+

 Run mode:       parallel run (MPI)

 Job started:    Fri Dec  7 14:53:20 2018

 +--------------------------------------------------------------------+
 |                        License Information                         |
 +--------------------------------------------------------------------+
 
 License Cap:    ANSYS CFX Solver (Max 128K Nodes)
 License Cap:     Parallel
 License ID:     VIGO_campus_bath_ac_uk-SYSTEM-1456-1261788


 +--------------------------------------------------------------------+
 |        Memory Allocated for Run  (Actual usage may be less)        |
 +--------------------------------------------------------------------+

 Allocated storage in:    Mwords
                          Mbytes

 Partition | Real       | Integer    | Character | Logical  | Double
 ----------+------------+------------+-----------+----------+----------
   Minimum |      16.83 |       3.47 |      7.32 |     0.12 |     0.91
  (     3) |      64.20 |      13.23 |      6.98 |     0.11 |     6.93
 ----------+------------+------------+-----------+----------+----------
   Maximum |      17.09 |       3.61 |      7.32 |     0.12 |     0.91
  (     1) |      65.19 |      13.76 |      6.98 |     0.11 |     6.93
 ----------+------------+------------+-----------+----------+----------
   Average |      16.92 |       3.54 |      7.32 |     0.12 |     0.91
           |      64.54 |      13.51 |      6.98 |     0.11 |     6.93
 ----------+------------+------------+-----------+----------+----------
     Total |      67.67 |      14.17 |     29.27 |     0.48 |     3.63
           |     258.14 |      54.05 |     27.91 |     0.46 |    27.71
 ----------+------------+------------+-----------+----------+----------


 +--------------------------------------------------------------------+
 |                  Host Memory Information (Mbytes)                  |
 +--------------------------------------------------------------------+
 |           Host         | Npart |   System    |  Allocated  |   %   |
 +------------------------+-------+-------------+-------------+-------+
 | ENPC-LAB119            |    4  |    16241.86 |      368.28 |  2.27 |
 +------------------------+-------+-------------+-------------+-------+


 +--------------------------------------------------------------------+
 |                     ****** Notice ******                           |
 | The Wall Heat Transfer Coefficient written to the results file for |
 | any turbulent phase with heat transfer is based on the turbulent   |
 | wall function coefficient. It is consistent with the Wall Heat Flux|
 | the wall temperature, and the Wall Adjacent Temperature            |
 | (near-wall temperature).  If you would like it to be based on a    |
 | user-specified bulk temperature instead, please set the expert     |
 | parameter "tbulk for htc = <value>".                               |
 +--------------------------------------------------------------------+

 +--------------------------------------------------------------------+
 |                      Topology Simplification                       |
 +--------------------------------------------------------------------+

 +--------------------------------------------------------------------+
 |                       ****** Warning ******                        |
 |                                                                    |
 | Topology simplification is activated with the following            |
 | restrictions:                                                      |
 |                                                                    |
 | - Mesh regions referenced only within User Fortran and NOT         |
 |   in the command file will cause the solver to stop.               |
 | - The solver will stop during any "Edit Run in Progress" step      |
 |   if new 2D regions are referenced.                                |
 +--------------------------------------------------------------------+

 +--------------------------------------------------------------------+
 |                          Mesh Statistics                           |
 +--------------------------------------------------------------------+
 | Domain Name          | Orthog. Angle | Exp. Factor  | Aspect Ratio |
 +----------------------+---------------+--------------+--------------+
 |                      | Minimum [deg] |   Maximum    |    Maximum   |
 +----------------------+---------------+--------------+--------------+
 | Default Domain       |       22.3 ok |        50  ! |        13 OK |
 +----------------------+---------------+--------------+--------------+
 |                      |  %!  %ok  %OK | %!  %ok  %OK | %!  %ok  %OK |
 +----------------------+---------------+--------------+--------------+
 | Default Domain       |   0    4   96 | <1    2   98 |  0    0  100 |
 +----------------------+---------------+--------------+--------------+

 Domain Name : Default Domain

     Total Number of Nodes                                =       59360

     Total Number of Elements                             =      185630
         Total Number of Tetrahedrons                     =      114957
         Total Number of Prisms                           =       70279
         Total Number of Pyramids                         =         394

     Total Number of Faces                                =       18247

 +--------------------------------------------------------------------+
 |                     Average Scale Information                      |
 +--------------------------------------------------------------------+

 Domain Name : Default Domain
     Global Length                                         = 3.2167E+00
     Minimum Extent                                        = 4.0000E+00
     Maximum Extent                                        = 6.0000E+00
     Density                                               = 9.9700E+02
     Dynamic Viscosity                                     = 8.8990E-04
     Velocity                                              = 0.0000E+00
     Thermal Conductivity                                  = 6.0690E-01
     Specific Heat Capacity at Constant Pressure           = 4.1817E+03
     Prandtl Number                                        = 6.1316E+00

 +--------------------------------------------------------------------+
 |                Checking for Isolated Fluid Regions                 |
 +--------------------------------------------------------------------+
 
 No isolated fluid regions were found.

 +--------------------------------------------------------------------+
 |              The Equations Solved in This Calculation              |
 +--------------------------------------------------------------------+

 Subsystem : Momentum and Mass

   U-Mom
   V-Mom
   W-Mom
   P-Mass

 Subsystem : Heat Transfer

   H-Energy

 Subsystem : Eddy Viscosity

   Eddy Viscosity
                   
 CFD Solver started: Fri Dec  7 14:53:27 2018


 +--------------------------------------------------------------------+
 |                       Convergence History                          |
 +--------------------------------------------------------------------+

 +--------------------------------------------------------------------+
 | Writing transient file 0_full.trn                                  |
 |   Name   : Transient Results 1                                     |
 |   Type   : Standard                                                |
 |   Option : Time Interval                                           |
 +--------------------------------------------------------------------+


 ======================================================================
 |                      Timestepping Information                      |
 ----------------------------------------------------------------------
 |       Timestep       |  RMS Courant Number  |  Max Courant Number  |
 +----------------------+----------------------+----------------------+
 |      1.0000E-01      |          0.00        |          0.00        |
 ----------------------------------------------------------------------

 ======================================================================
 TIME STEP =     1 SIMULATION TIME = 1.0000E-01 CPU SECONDS = 4.621E+01
 ----------------------------------------------------------------------
 COEFFICIENT LOOP ITERATION =    1              CPU SECONDS = 4.621E+01
 ----------------------------------------------------------------------
 |       Equation       | Rate | RMS Res | Max Res |  Linear Solution |
 +----------------------+------+---------+---------+------------------+
 | U-Mom                | 0.00 | 0.0E+00 | 0.0E+00 |       0.0E+00  OK|
 | V-Mom                | 0.00 | 3.4E-02 | 4.8E-01 |       2.2E-03  OK|
 | W-Mom                | 0.00 | 0.0E+00 | 0.0E+00 |       0.0E+00  OK|
 | P-Mass               | 0.00 | 8.8E-04 | 2.7E-02 | 18.3  8.8E-02  OK|
 +----------------------+------+---------+---------+------------------+
 | H-Energy             | 0.00 | 4.3E-02 | 8.2E-01 |  5.6  2.9E-03  OK|
 +----------------------+------+---------+---------+------------------+
 | Eddy Viscosity       | 0.00 | 2.1E-01 | 5.5E-01 |  7.7  1.1E-03  OK|
 +----------------------+------+---------+---------+------------------+
 ----------------------------------------------------------------------
 COEFFICIENT LOOP ITERATION =    2              CPU SECONDS = 4.996E+01
 ----------------------------------------------------------------------
 |       Equation       | Rate | RMS Res | Max Res |  Linear Solution |
 +----------------------+------+---------+---------+------------------+
 | U-Mom                | 0.00 | 3.3E-03 | 7.1E-02 |       2.2E-02  OK|
 | V-Mom                | 0.26 | 9.1E-03 | 1.2E-01 |       7.6E-03  OK|
 | W-Mom                | 0.00 | 6.2E-03 | 1.3E-01 |       8.3E-03  OK|
 | P-Mass               | 0.85 | 7.5E-04 | 1.7E-02 | 18.3  6.8E-02  OK|
 +----------------------+------+---------+---------+------------------+
 | H-Energy             | 0.04 | 1.8E-03 | 3.8E-02 |  5.6  4.6E-03  OK|
 +----------------------+------+---------+---------+------------------+
 | Eddy Viscosity       | 0.42 | 8.9E-02 | 9.8E-01 |  7.7  2.1E-03  OK|
 +----------------------+------+---------+---------+------------------+
 ----------------------------------------------------------------------
 COEFFICIENT LOOP ITERATION =    3              CPU SECONDS = 5.346E+01
 ----------------------------------------------------------------------
 |       Equation       | Rate | RMS Res | Max Res |  Linear Solution |
 +----------------------+------+---------+---------+------------------+
 | U-Mom                | 0.51 | 1.7E-03 | 5.9E-02 |       4.4E-02  OK|
 | V-Mom                | 0.51 | 4.6E-03 | 8.9E-02 |       2.3E-02  OK|
 | W-Mom                | 0.56 | 3.5E-03 | 5.1E-02 |       1.8E-02  OK|
 | P-Mass               | 0.81 | 6.1E-04 | 1.1E-02 | 14.0  6.4E-02  OK|
 +----------------------+------+---------+---------+------------------+
 | H-Energy             | 0.73 | 1.3E-03 | 2.8E-02 |  5.6  2.9E-03  OK|
 +----------------------+------+---------+---------+------------------+
 | Eddy Viscosity       | 0.76 | 6.8E-02 | 5.1E-01 |  7.7  2.6E-03  OK|
 +----------------------+------+---------+---------+------------------+
 ----------------------------------------------------------------------
 COEFFICIENT LOOP ITERATION =    4              CPU SECONDS = 5.685E+01
 ----------------------------------------------------------------------
 |       Equation       | Rate | RMS Res | Max Res |  Linear Solution |
 +----------------------+------+---------+---------+------------------+
 | U-Mom                | 0.68 | 1.2E-03 | 4.3E-02 |       5.3E-02  OK|
 | V-Mom                | 0.54 | 2.5E-03 | 6.7E-02 |       4.1E-02  OK|
 | W-Mom                | 0.51 | 1.8E-03 | 3.6E-02 |       4.4E-02  OK|
 | P-Mass               | 0.63 | 3.8E-04 | 8.3E-03 |  9.7  9.4E-02  OK|
 +----------------------+------+---------+---------+------------------+
 | H-Energy             | 0.49 | 6.5E-04 | 1.7E-02 |  5.6  4.2E-03  OK|
 +----------------------+------+---------+---------+------------------+
 | Eddy Viscosity       | 0.29 | 2.0E-02 | 1.9E-01 |  7.7  2.3E-03  OK|
 +----------------------+------+---------+---------+------------------+
 ----------------------------------------------------------------------
 COEFFICIENT LOOP ITERATION =    5              CPU SECONDS = 5.993E+01
 ----------------------------------------------------------------------
 |       Equation       | Rate | RMS Res | Max Res |  Linear Solution |
 +----------------------+------+---------+---------+------------------+
 | U-Mom                | 0.80 | 9.3E-04 | 3.2E-02 |       3.8E-02  OK|
 | V-Mom                | 0.70 | 1.7E-03 | 3.9E-02 |       3.2E-02  OK|
 | W-Mom                | 0.76 | 1.4E-03 | 3.5E-02 |       3.8E-02  OK|
 | P-Mass               | 0.59 | 2.3E-04 | 5.1E-03 |  9.7  9.9E-02  OK|
 +----------------------+------+---------+---------+------------------+
 | H-Energy             | 0.52 | 3.4E-04 | 9.9E-03 |  5.6  4.6E-03  OK|
 +----------------------+------+---------+---------+------------------+
 | Eddy Viscosity       | 0.48 | 9.3E-03 | 1.1E-01 |  7.7  2.7E-03  OK|
 +----------------------+------+---------+---------+------------------+
 ----------------------------------------------------------------------
 COEFFICIENT LOOP ITERATION =    6              CPU SECONDS = 6.300E+01
 ----------------------------------------------------------------------
 |       Equation       | Rate | RMS Res | Max Res |  Linear Solution |
 +----------------------+------+---------+---------+------------------+
 | U-Mom                | 0.54 | 5.0E-04 | 1.2E-02 |       1.6E-02  OK|
 | V-Mom                | 0.59 | 1.0E-03 | 3.6E-02 |       1.4E-02  OK|
 | W-Mom                | 0.60 | 8.2E-04 | 2.8E-02 |       1.6E-02  OK|
 | P-Mass               | 0.65 | 1.5E-04 | 2.8E-03 | 14.0  5.9E-02  OK|
 +----------------------+------+---------+---------+------------------+
 | H-Energy             | 0.54 | 1.8E-04 | 4.8E-03 |  5.6  5.1E-03  OK|
 +----------------------+------+---------+---------+------------------+
 | Eddy Viscosity       | 0.51 | 4.7E-03 | 1.2E-01 |  7.7  2.3E-03  OK|
 +----------------------+------+---------+---------+------------------+
 ----------------------------------------------------------------------
 COEFFICIENT LOOP ITERATION =    7              CPU SECONDS = 6.635E+01
 ----------------------------------------------------------------------
 |       Equation       | Rate | RMS Res | Max Res |  Linear Solution |
 +----------------------+------+---------+---------+------------------+
 | U-Mom                | 0.67 | 3.4E-04 | 1.1E-02 |       2.9E-02  OK|
 | V-Mom                | 0.64 | 6.6E-04 | 2.5E-02 |       2.7E-02  OK|
 | W-Mom                | 0.72 | 5.9E-04 | 2.9E-02 |       2.8E-02  OK|
 | P-Mass               | 0.66 | 9.8E-05 | 1.7E-03 |  9.7  9.1E-02  OK|
 +----------------------+------+---------+---------+------------------+
 | H-Energy             | 0.53 | 9.7E-05 | 2.5E-03 |  5.6  6.2E-03  OK|
 +----------------------+------+---------+---------+------------------+
 | Eddy Viscosity       | 0.72 | 3.4E-03 | 1.2E-01 |  7.7  2.3E-03  OK|
 +----------------------+------+---------+---------+------------------+
 ----------------------------------------------------------------------
 COEFFICIENT LOOP ITERATION =    8              CPU SECONDS = 6.949E+01
 ----------------------------------------------------------------------
 |       Equation       | Rate | RMS Res | Max Res |  Linear Solution |
 +----------------------+------+---------+---------+------------------+
 | U-Mom                | 0.75 | 2.5E-04 | 8.1E-03 |       2.6E-02  OK|
 | V-Mom                | 0.67 | 4.4E-04 | 1.8E-02 |       2.5E-02  OK|
 | W-Mom                | 0.74 | 4.3E-04 | 1.2E-02 |       2.3E-02  OK|
 | P-Mass               | 0.67 | 6.6E-05 | 1.3E-03 |  9.7  9.4E-02  OK|
 +----------------------+------+---------+---------+------------------+
 | H-Energy             | 0.55 | 5.3E-05 | 1.5E-03 |  5.6  6.3E-03  OK|
 +----------------------+------+---------+---------+------------------+
 | Eddy Viscosity       | 0.60 | 2.1E-03 | 6.9E-02 |  7.7  2.1E-03  OK|
 +----------------------+------+---------+---------+------------------+
 ----------------------------------------------------------------------
 COEFFICIENT LOOP ITERATION =    9              CPU SECONDS = 7.267E+01
 ----------------------------------------------------------------------
 |       Equation       | Rate | RMS Res | Max Res |  Linear Solution |
 +----------------------+------+---------+---------+------------------+
 | U-Mom                | 0.76 | 1.9E-04 | 7.9E-03 |       2.3E-02  OK|
 | V-Mom                | 0.70 | 3.1E-04 | 9.4E-03 |       2.2E-02  OK|
 | W-Mom                | 0.73 | 3.1E-04 | 1.1E-02 |       2.0E-02  OK|
 | P-Mass               | 0.68 | 4.4E-05 | 1.0E-03 |  9.7  9.7E-02  OK|
 +----------------------+------+---------+---------+------------------+
 | H-Energy             | 0.55 | 2.9E-05 | 8.1E-04 |  5.6  6.4E-03  OK|
 +----------------------+------+---------+---------+------------------+
 | Eddy Viscosity       | 0.69 | 1.4E-03 | 3.7E-02 |  7.7  1.9E-03  OK|
 +----------------------+------+---------+---------+------------------+
 ----------------------------------------------------------------------
 COEFFICIENT LOOP ITERATION =   10              CPU SECONDS = 7.589E+01
 ----------------------------------------------------------------------
 |       Equation       | Rate | RMS Res | Max Res |  Linear Solution |
 +----------------------+------+---------+---------+------------------+
 | U-Mom                | 0.71 | 1.4E-04 | 5.4E-03 |       2.3E-02  OK|
 | V-Mom                | 0.73 | 2.3E-04 | 6.0E-03 |       2.1E-02  OK|
 | W-Mom                | 0.68 | 2.2E-04 | 9.3E-03 |       1.9E-02  OK|
 | P-Mass               | 0.71 | 3.1E-05 | 7.0E-04 |  9.7  9.6E-02  OK|
 +----------------------+------+---------+---------+------------------+
 | H-Energy             | 0.56 | 1.6E-05 | 3.4E-04 |  5.6  6.6E-03  OK|
 +----------------------+------+---------+---------+------------------+
 | Eddy Viscosity       | 0.66 | 9.4E-04 | 2.1E-02 |  7.7  2.0E-03  OK|
 +----------------------+------+---------+---------+------------------+


 ======================================================================
 |                      Timestepping Information                      |
 ----------------------------------------------------------------------
 |       Timestep       |  RMS Courant Number  |  Max Courant Number  |
 +----------------------+----------------------+----------------------+
 |      1.0000E-01      |          3.40        |         28.38        |
 ----------------------------------------------------------------------

 ======================================================================
 TIME STEP =     2 SIMULATION TIME = 2.0000E-01 CPU SECONDS = 7.946E+01
 ----------------------------------------------------------------------
 COEFFICIENT LOOP ITERATION =    1              CPU SECONDS = 7.946E+01
 ----------------------------------------------------------------------
 |       Equation       | Rate | RMS Res | Max Res |  Linear Solution |
 +----------------------+------+---------+---------+------------------+
 | U-Mom                | 0.00 | 4.3E-03 | 1.3E-01 |       3.0E-02  OK|
 | V-Mom                | 0.43 | 1.5E-02 | 1.7E-01 |       1.6E-02  OK|
 | W-Mom                | 0.00 | 1.7E-02 | 3.4E-01 |       6.3E-03  OK|
 | P-Mass               | 4.28 | 3.8E-03 | 9.0E-02 |  9.7  8.6E-02  OK|
 +----------------------+------+---------+---------+------------------+
 | H-Energy             | 0.38 | 1.7E-02 | 1.8E-01 |  5.6  2.6E-03  OK|
 +----------------------+------+---------+---------+------------------+
 | Eddy Viscosity       | 0.24 | 5.1E-02 | 4.6E-01 |  7.7  5.2E-03  OK|
 +----------------------+------+---------+---------+------------------+
 ----------------------------------------------------------------------
 COEFFICIENT LOOP ITERATION =    2              CPU SECONDS = 8.263E+01
 ----------------------------------------------------------------------
 |       Equation       | Rate | RMS Res | Max Res |  Linear Solution |
 +----------------------+------+---------+---------+------------------+
 | U-Mom                | 0.50 | 2.2E-03 | 5.7E-02 |       2.2E-02  OK|
 | V-Mom                | 0.32 | 4.7E-03 | 8.3E-02 |       1.4E-02  OK|
 | W-Mom                | 0.26 | 4.5E-03 | 7.3E-02 |       9.3E-03  OK|
 | P-Mass               | 0.26 | 9.6E-04 | 2.0E-02 | 14.0  9.7E-02  OK|
 +----------------------+------+---------+---------+------------------+
 | H-Energy             | 0.16 | 2.7E-03 | 5.2E-02 |  5.5  1.2E-03  OK|
 +----------------------+------+---------+---------+------------------+
 | Eddy Viscosity       | 1.05 | 5.4E-02 | 5.8E-01 |  7.7  2.7E-03  OK|
 +----------------------+------+---------+---------+------------------+
 ----------------------------------------------------------------------
 COEFFICIENT LOOP ITERATION =    3              CPU SECONDS = 8.594E+01
 ----------------------------------------------------------------------
 |       Equation       | Rate | RMS Res | Max Res |  Linear Solution |
 +----------------------+------+---------+---------+------------------+
 | U-Mom                | 0.41 | 8.9E-04 | 2.0E-02 |       3.0E-02  OK|
 | V-Mom                | 0.57 | 2.7E-03 | 5.8E-02 |       2.0E-02  OK|
 | W-Mom                | 0.55 | 2.5E-03 | 4.3E-02 |       1.4E-02  OK|
 | P-Mass               | 0.59 | 5.7E-04 | 1.2E-02 | 14.0  7.8E-02  OK|
 +----------------------+------+---------+---------+------------------+
 | H-Energy             | 0.34 | 9.2E-04 | 2.8E-02 |  5.5  1.1E-03  OK|
 +----------------------+------+---------+---------+------------------+
 | Eddy Viscosity       | 0.46 | 2.5E-02 | 2.3E-01 |  7.7  3.1E-03  OK|
 +----------------------+------+---------+---------+------------------+
 ----------------------------------------------------------------------
 COEFFICIENT LOOP ITERATION =    4              CPU SECONDS = 8.924E+01
 ----------------------------------------------------------------------
 |       Equation       | Rate | RMS Res | Max Res |  Linear Solution |
 +----------------------+------+---------+---------+------------------+
 | U-Mom                | 0.45 | 4.0E-04 | 9.4E-03 |       4.5E-02  OK|
 | V-Mom                | 0.46 | 1.2E-03 | 4.2E-02 |       3.0E-02  OK|
 | W-Mom                | 0.48 | 1.2E-03 | 2.9E-02 |       2.5E-02  OK|
 | P-Mass               | 0.77 | 4.4E-04 | 6.1E-03 | 14.0  7.6E-02  OK|
 +----------------------+------+---------+---------+------------------+
 | H-Energy             | 0.30 | 2.7E-04 | 5.0E-03 |  5.5  2.2E-03  OK|
 +----------------------+------+---------+---------+------------------+
 | Eddy Viscosity       | 0.40 | 9.9E-03 | 1.1E-01 |  7.7  4.6E-03  OK|
 +----------------------+------+---------+---------+------------------+
 ----------------------------------------------------------------------
 COEFFICIENT LOOP ITERATION =    5              CPU SECONDS = 9.261E+01
 ----------------------------------------------------------------------
 |       Equation       | Rate | RMS Res | Max Res |  Linear Solution |
 +----------------------+------+---------+---------+------------------+
 | U-Mom                | 0.67 | 2.7E-04 | 5.3E-03 |       4.4E-02  OK|
 | V-Mom                | 0.65 | 8.1E-04 | 2.8E-02 |       3.3E-02  OK|
 | W-Mom                | 0.68 | 8.2E-04 | 2.2E-02 |       2.7E-02  OK|
 | P-Mass               | 0.64 | 2.8E-04 | 4.8E-03 | 14.0  7.8E-02  OK|
 +----------------------+------+---------+---------+------------------+
 | H-Energy             | 0.49 | 1.3E-04 | 2.5E-03 |  5.5  2.4E-03  OK|
 +----------------------+------+---------+---------+------------------+
 | Eddy Viscosity       | 0.52 | 5.1E-03 | 7.3E-02 |  7.7  4.7E-03  OK|
 +----------------------+------+---------+---------+------------------+
 ----------------------------------------------------------------------
 COEFFICIENT LOOP ITERATION =    6              CPU SECONDS = 9.594E+01
 ----------------------------------------------------------------------
 |       Equation       | Rate | RMS Res | Max Res |  Linear Solution |
 +----------------------+------+---------+---------+------------------+
 | U-Mom                | 0.73 | 2.0E-04 | 4.2E-03 |       4.3E-02  OK|
 | V-Mom                | 0.61 | 4.9E-04 | 1.6E-02 |       3.4E-02  OK|
 | W-Mom                | 0.65 | 5.3E-04 | 1.4E-02 |       2.9E-02  OK|
 | P-Mass               | 0.68 | 1.9E-04 | 3.2E-03 | 14.0  8.0E-02  OK|
 +----------------------+------+---------+---------+------------------+
 | H-Energy             | 0.57 | 7.5E-05 | 1.4E-03 |  5.5  2.3E-03  OK|
 +----------------------+------+---------+---------+------------------+
 | Eddy Viscosity       | 0.56 | 2.9E-03 | 3.4E-02 |  7.7  4.0E-03  OK|
 +----------------------+------+---------+---------+------------------+
 ----------------------------------------------------------------------
 COEFFICIENT LOOP ITERATION =    7              CPU SECONDS = 9.928E+01
 ----------------------------------------------------------------------
 |       Equation       | Rate | RMS Res | Max Res |  Linear Solution |
 +----------------------+------+---------+---------+------------------+
 | U-Mom                | 0.73 | 1.4E-04 | 3.0E-03 |       4.4E-02  OK|
 | V-Mom                | 0.66 | 3.3E-04 | 9.2E-03 |       3.6E-02  OK|
 | W-Mom                | 0.68 | 3.6E-04 | 7.5E-03 |       3.1E-02  OK|
 | P-Mass               | 0.65 | 1.2E-04 | 2.1E-03 | 14.0  8.3E-02  OK|
 +----------------------+------+---------+---------+------------------+
 | H-Energy             | 0.59 | 4.4E-05 | 7.1E-04 |  5.6  2.0E-03  OK|
 +----------------------+------+---------+---------+------------------+
 | Eddy Viscosity       | 0.62 | 1.8E-03 | 1.7E-02 |  7.7  3.2E-03  OK|
 +----------------------+------+---------+---------+------------------+
 ----------------------------------------------------------------------
 COEFFICIENT LOOP ITERATION =    8              CPU SECONDS = 1.026E+02
 ----------------------------------------------------------------------
 |       Equation       | Rate | RMS Res | Max Res |  Linear Solution |
 +----------------------+------+---------+---------+------------------+
 | U-Mom                | 0.75 | 1.1E-04 | 2.3E-03 |       4.4E-02  OK|
 | V-Mom                | 0.69 | 2.2E-04 | 5.2E-03 |       3.7E-02  OK|
 | W-Mom                | 0.69 | 2.5E-04 | 5.4E-03 |       3.2E-02  OK|
 | P-Mass               | 0.67 | 8.3E-05 | 1.4E-03 | 14.0  8.5E-02  OK|
 +----------------------+------+---------+---------+------------------+
 | H-Energy             | 0.59 | 2.6E-05 | 4.8E-04 |  5.6  1.9E-03  OK|
 +----------------------+------+---------+---------+------------------+
 | Eddy Viscosity       | 0.65 | 1.1E-03 | 1.4E-02 |  7.7  2.6E-03  OK|
 +----------------------+------+---------+---------+------------------+
 ----------------------------------------------------------------------
 COEFFICIENT LOOP ITERATION =    9              CPU SECONDS = 1.059E+02
 ----------------------------------------------------------------------
 |       Equation       | Rate | RMS Res | Max Res |  Linear Solution |
 +----------------------+------+---------+---------+------------------+
 | U-Mom                | 0.78 | 8.4E-05 | 1.9E-03 |       4.3E-02  OK|
 | V-Mom                | 0.73 | 1.6E-04 | 3.7E-03 |       3.8E-02  OK|
 | W-Mom                | 0.72 | 1.8E-04 | 4.5E-03 |       3.4E-02  OK|
 | P-Mass               | 0.68 | 5.6E-05 | 1.0E-03 | 14.0  8.8E-02  OK|
 +----------------------+------+---------+---------+------------------+
 | H-Energy             | 0.60 | 1.6E-05 | 3.2E-04 |  5.6  1.8E-03  OK|
 +----------------------+------+---------+---------+------------------+
 | Eddy Viscosity       | 0.69 | 8.0E-04 | 1.2E-02 |  7.7  2.3E-03  OK|
 +----------------------+------+---------+---------+------------------+
 ----------------------------------------------------------------------
 COEFFICIENT LOOP ITERATION =   10              CPU SECONDS = 1.093E+02
 ----------------------------------------------------------------------
 |       Equation       | Rate | RMS Res | Max Res |  Linear Solution |
 +----------------------+------+---------+---------+------------------+
 | U-Mom                | 0.81 | 6.8E-05 | 1.7E-03 |       4.1E-02  OK|
 | V-Mom                | 0.76 | 1.2E-04 | 3.0E-03 |       3.7E-02  OK|
 | W-Mom                | 0.74 | 1.3E-04 | 3.8E-03 |       3.3E-02  OK|
 | P-Mass               | 0.69 | 3.9E-05 | 7.1E-04 | 14.0  9.0E-02  OK|
 +----------------------+------+---------+---------+------------------+
 | H-Energy             | 0.63 | 9.9E-06 | 2.3E-04 |  5.6  1.9E-03  OK|
 +----------------------+------+---------+---------+------------------+
 | Eddy Viscosity       | 0.72 | 5.7E-04 | 9.0E-03 |  7.7  2.2E-03  OK|
 +----------------------+------+---------+---------+------------------+


 ======================================================================
 |                      Timestepping Information                      |
 ----------------------------------------------------------------------
 |       Timestep       |  RMS Courant Number  |  Max Courant Number  |
 +----------------------+----------------------+----------------------+
 |      1.0000E-01      |          3.32        |         28.83        |
 ----------------------------------------------------------------------

 ======================================================================
 TIME STEP =     3 SIMULATION TIME = 3.0000E-01 CPU SECONDS = 1.130E+02
 ----------------------------------------------------------------------
 COEFFICIENT LOOP ITERATION =    1              CPU SECONDS = 1.130E+02
 ----------------------------------------------------------------------
 |       Equation       | Rate | RMS Res | Max Res |  Linear Solution |
 +----------------------+------+---------+---------+------------------+
 | U-Mom                | 1.11 | 4.8E-03 | 4.5E-02 |       1.1E-03  OK|
 | V-Mom                | 0.76 | 1.1E-02 | 5.3E-02 |       6.6E-04  OK|
 | W-Mom                | 0.56 | 9.8E-03 | 5.2E-02 |       4.1E-04  OK|
 | P-Mass               | 0.07 | 2.7E-04 | 4.4E-03 | 27.0  8.5E-02  OK|
 +----------------------+------+---------+---------+------------------+
 | H-Energy             | 0.83 | 1.4E-02 | 1.2E-01 |  5.5  3.6E-03  OK|
 +----------------------+------+---------+---------+------------------+
 | Eddy Viscosity       | 0.40 | 2.1E-02 | 3.8E-01 |  7.7  3.8E-03  OK|
 +----------------------+------+---------+---------+------------------+
 ----------------------------------------------------------------------
 COEFFICIENT LOOP ITERATION =    2              CPU SECONDS = 1.168E+02
 ----------------------------------------------------------------------
 |       Equation       | Rate | RMS Res | Max Res |  Linear Solution |
 +----------------------+------+---------+---------+------------------+
 | U-Mom                | 0.21 | 9.9E-04 | 2.2E-02 |       2.5E-02  OK|
 | V-Mom                | 0.21 | 2.3E-03 | 5.8E-02 |       1.3E-02  OK|
 | W-Mom                | 0.17 | 1.7E-03 | 3.2E-02 |       2.4E-02  OK|
 | P-Mass               | 1.81 | 4.9E-04 | 1.1E-02 | 14.0  6.9E-02  OK|
 +----------------------+------+---------+---------+------------------+
 | H-Energy             | 0.14 | 1.9E-03 | 2.9E-02 |  5.5  1.4E-03  OK|
 +----------------------+------+---------+---------+------------------+
 | Eddy Viscosity       | 0.31 | 6.4E-03 | 1.2E-01 |  7.7  2.9E-03  OK|
 +----------------------+------+---------+---------+------------------+
 ----------------------------------------------------------------------
 COEFFICIENT LOOP ITERATION =    3              CPU SECONDS = 1.201E+02
 ----------------------------------------------------------------------
 |       Equation       | Rate | RMS Res | Max Res |  Linear Solution |
 +----------------------+------+---------+---------+------------------+
 | U-Mom                | 0.43 | 4.3E-04 | 1.1E-02 |       7.4E-02  OK|
 | V-Mom                | 0.44 | 1.0E-03 | 2.8E-02 |       4.3E-02  OK|
 | W-Mom                | 0.48 | 8.0E-04 | 1.8E-02 |       4.2E-02  OK|
 | P-Mass               | 0.58 | 2.9E-04 | 5.8E-03 |  9.7  9.5E-02  OK|
 +----------------------+------+---------+---------+------------------+
 | H-Energy             | 0.50 | 9.5E-04 | 2.1E-02 |  5.5  1.4E-03  OK|
 +----------------------+------+---------+---------+------------------+
 | Eddy Viscosity       | 0.57 | 3.7E-03 | 8.0E-02 |  7.7  2.1E-03  OK|
 +----------------------+------+---------+---------+------------------+
 ----------------------------------------------------------------------
 COEFFICIENT LOOP ITERATION =    4              CPU SECONDS = 1.232E+02
 ----------------------------------------------------------------------
 |       Equation       | Rate | RMS Res | Max Res |  Linear Solution |
 +----------------------+------+---------+---------+------------------+
 | U-Mom                | 0.51 | 2.2E-04 | 5.4E-03 |       6.6E-02  OK|
 | V-Mom                | 0.58 | 6.0E-04 | 2.0E-02 |       3.9E-02  OK|
 | W-Mom                | 0.59 | 4.7E-04 | 1.2E-02 |       5.0E-02  OK|
 | P-Mass               | 0.57 | 1.6E-04 | 2.9E-03 | 14.0  7.2E-02  OK|
 +----------------------+------+---------+---------+------------------+
 | H-Energy             | 0.32 | 3.0E-04 | 5.6E-03 |  5.5  2.6E-03  OK|
 +----------------------+------+---------+---------+------------------+
 | Eddy Viscosity       | 0.46 | 1.7E-03 | 3.3E-02 |  7.7  1.5E-03  OK|
 +----------------------+------+---------+---------+------------------+
 ----------------------------------------------------------------------
 COEFFICIENT LOOP ITERATION =    5              CPU SECONDS = 1.266E+02
 ----------------------------------------------------------------------
 |       Equation       | Rate | RMS Res | Max Res |  Linear Solution |
 +----------------------+------+---------+---------+------------------+
 | U-Mom                | 0.67 | 1.5E-04 | 4.2E-03 |       4.1E-02  OK|
 | V-Mom                | 0.64 | 3.9E-04 | 1.4E-02 |       2.7E-02  OK|
 | W-Mom                | 0.67 | 3.2E-04 | 9.5E-03 |       2.8E-02  OK|
 | P-Mass               | 0.66 | 1.1E-04 | 1.8E-03 | 14.0  7.2E-02  OK|
 +----------------------+------+---------+---------+------------------+
 | H-Energy             | 0.54 | 1.6E-04 | 2.9E-03 |  5.5  2.2E-03  OK|
 +----------------------+------+---------+---------+------------------+
 | Eddy Viscosity       | 0.75 | 1.3E-03 | 2.9E-02 |  7.7  2.0E-03  OK|
 +----------------------+------+---------+---------+------------------+
 ----------------------------------------------------------------------
 COEFFICIENT LOOP ITERATION =    6              CPU SECONDS = 1.299E+02
 ----------------------------------------------------------------------
 |       Equation       | Rate | RMS Res | Max Res |  Linear Solution |
 +----------------------+------+---------+---------+------------------+
 | U-Mom                | 0.77 | 1.1E-04 | 4.2E-03 |       4.7E-02  OK|
 | V-Mom                | 0.78 | 3.0E-04 | 1.2E-02 |       3.2E-02  OK|
 | W-Mom                | 0.72 | 2.3E-04 | 7.7E-03 |       3.7E-02  OK|
 | P-Mass               | 0.69 | 7.4E-05 | 1.4E-03 | 14.0  7.2E-02  OK|
 +----------------------+------+---------+---------+------------------+
 | H-Energy             | 0.60 | 9.8E-05 | 2.3E-03 |  5.6  2.1E-03  OK|
 +----------------------+------+---------+---------+------------------+
 | Eddy Viscosity       | 0.69 | 8.8E-04 | 2.2E-02 |  7.7  2.6E-03  OK|
 +----------------------+------+---------+---------+------------------+
 ----------------------------------------------------------------------
 COEFFICIENT LOOP ITERATION =    7              CPU SECONDS = 1.332E+02
 ----------------------------------------------------------------------
 |       Equation       | Rate | RMS Res | Max Res |  Linear Solution |
 +----------------------+------+---------+---------+------------------+
 | U-Mom                | 0.76 | 8.6E-05 | 3.5E-03 |       4.4E-02  OK|
 | V-Mom                | 0.76 | 2.3E-04 | 1.0E-02 |       3.1E-02  OK|
 | W-Mom                | 0.73 | 1.7E-04 | 6.1E-03 |       3.5E-02  OK|
 | P-Mass               | 0.68 | 5.0E-05 | 1.1E-03 | 14.0  7.3E-02  OK|
 +----------------------+------+---------+---------+------------------+
 | H-Energy             | 0.61 | 5.9E-05 | 1.9E-03 |  5.6  2.1E-03  OK|
 +----------------------+------+---------+---------+------------------+
 | Eddy Viscosity       | 0.75 | 6.6E-04 | 1.6E-02 |  7.7  3.2E-03  OK|
 +----------------------+------+---------+---------+------------------+
 ----------------------------------------------------------------------
 COEFFICIENT LOOP ITERATION =    8              CPU SECONDS = 1.365E+02
 ----------------------------------------------------------------------
 |       Equation       | Rate | RMS Res | Max Res |  Linear Solution |
 +----------------------+------+---------+---------+------------------+
 | U-Mom                | 0.76 | 6.6E-05 | 3.0E-03 |       4.2E-02  OK|
 | V-Mom                | 0.77 | 1.8E-04 | 8.4E-03 |       3.1E-02  OK|
 | W-Mom                | 0.75 | 1.2E-04 | 4.7E-03 |       3.4E-02  OK|
 | P-Mass               | 0.70 | 3.5E-05 | 9.4E-04 | 14.0  7.5E-02  OK|
 +----------------------+------+---------+---------+------------------+
 | H-Energy             | 0.63 | 3.7E-05 | 1.1E-03 |  5.6  2.2E-03  OK|
 +----------------------+------+---------+---------+------------------+
 | Eddy Viscosity       | 0.72 | 4.7E-04 | 1.1E-02 |  7.7  3.5E-03  OK|
 +----------------------+------+---------+---------+------------------+
 ----------------------------------------------------------------------
 COEFFICIENT LOOP ITERATION =    9              CPU SECONDS = 1.399E+02
 ----------------------------------------------------------------------
 |       Equation       | Rate | RMS Res | Max Res |  Linear Solution |
 +----------------------+------+---------+---------+------------------+
 | U-Mom                | 0.76 | 5.0E-05 | 2.5E-03 |       4.1E-02  OK|
 | V-Mom                | 0.77 | 1.4E-04 | 6.8E-03 |       3.0E-02  OK|
 | W-Mom                | 0.76 | 9.4E-05 | 3.7E-03 |       3.3E-02  OK|
 | P-Mass               | 0.71 | 2.5E-05 | 7.8E-04 | 14.0  7.6E-02  OK|
 +----------------------+------+---------+---------+------------------+
 | H-Energy             | 0.65 | 2.4E-05 | 8.7E-04 |  5.6  2.4E-03  OK|
 +----------------------+------+---------+---------+------------------+
 | Eddy Viscosity       | 0.74 | 3.5E-04 | 9.0E-03 |  7.7  3.5E-03  OK|
 +----------------------+------+---------+---------+------------------+
 ----------------------------------------------------------------------
 COEFFICIENT LOOP ITERATION =   10              CPU SECONDS = 1.431E+02
 ----------------------------------------------------------------------
 |       Equation       | Rate | RMS Res | Max Res |  Linear Solution |
 +----------------------+------+---------+---------+------------------+
 | U-Mom                | 0.77 | 3.9E-05 | 2.0E-03 |       3.9E-02  OK|
 | V-Mom                | 0.78 | 1.1E-04 | 5.7E-03 |       2.9E-02  OK|
 | W-Mom                | 0.77 | 7.3E-05 | 3.0E-03 |       3.4E-02  OK|
 | P-Mass               | 0.73 | 1.8E-05 | 6.3E-04 | 14.0  7.8E-02  OK|
 +----------------------+------+---------+---------+------------------+
 | H-Energy             | 0.68 | 1.6E-05 | 6.7E-04 |  5.6  2.5E-03  OK|
 +----------------------+------+---------+---------+------------------+
 | Eddy Viscosity       | 0.74 | 2.6E-04 | 7.4E-03 |  7.7  3.6E-03  OK|
 +----------------------+------+---------+---------+------------------+


 ======================================================================
 |                      Timestepping Information                      |
 ----------------------------------------------------------------------
 |       Timestep       |  RMS Courant Number  |  Max Courant Number  |
 +----------------------+----------------------+----------------------+
 |      1.0000E-01      |          3.29        |         29.24        |
 ----------------------------------------------------------------------

 ======================================================================
 TIME STEP =     4 SIMULATION TIME = 4.0000E-01 CPU SECONDS = 1.468E+02
 ----------------------------------------------------------------------
 COEFFICIENT LOOP ITERATION =    1              CPU SECONDS = 1.468E+02
 ----------------------------------------------------------------------
 |       Equation       | Rate | RMS Res | Max Res |  Linear Solution |
 +----------------------+------+---------+---------+------------------+
 | U-Mom                | 0.30 | 1.4E-03 | 3.4E-02 |       2.2E-03  OK|
 | V-Mom                | 0.17 | 1.9E-03 | 5.9E-02 |       2.0E-03  OK|
 | W-Mom                | 0.20 | 2.0E-03 | 3.6E-02 |       2.3E-03  OK|
 | P-Mass               | 0.59 | 1.6E-04 | 2.7E-03 |  9.7  8.3E-02  OK|
 +----------------------+------+---------+---------+------------------+
 | H-Energy             | 0.96 | 1.3E-02 | 9.8E-02 |  5.5  6.0E-03  OK|
 +----------------------+------+---------+---------+------------------+
 | Eddy Viscosity       | 0.82 | 1.7E-02 | 3.3E-01 |  7.7  3.5E-03  OK|
 +----------------------+------+---------+---------+------------------+
 ----------------------------------------------------------------------
 COEFFICIENT LOOP ITERATION =    2              CPU SECONDS = 1.501E+02
 ----------------------------------------------------------------------
 |       Equation       | Rate | RMS Res | Max Res |  Linear Solution |
 +----------------------+------+---------+---------+------------------+
 | U-Mom                | 0.50 | 7.2E-04 | 2.6E-02 |       5.6E-03  OK|
 | V-Mom                | 1.08 | 2.0E-03 | 4.3E-02 |       2.2E-03  OK|
 | W-Mom                | 0.51 | 1.0E-03 | 2.1E-02 |       7.6E-03  OK|
 | P-Mass               | 0.49 | 7.8E-05 | 1.8E-03 |  9.7  7.3E-02  OK|
 +----------------------+------+---------+---------+------------------+
 | H-Energy             | 0.10 | 1.3E-03 | 1.9E-02 |  5.6  2.4E-03  OK|
 +----------------------+------+---------+---------+------------------+
 | Eddy Viscosity       | 0.26 | 4.4E-03 | 9.8E-02 |  7.7  1.7E-03  OK|
 +----------------------+------+---------+---------+------------------+
 ----------------------------------------------------------------------
 COEFFICIENT LOOP ITERATION =    3              CPU SECONDS = 1.533E+02
 ----------------------------------------------------------------------
 |       Equation       | Rate | RMS Res | Max Res |  Linear Solution |
 +----------------------+------+---------+---------+------------------+
 | U-Mom                | 0.43 | 3.1E-04 | 1.9E-02 |       3.7E-02  OK|
 | V-Mom                | 0.29 | 5.9E-04 | 1.8E-02 |       2.4E-02  OK|
 | W-Mom                | 0.38 | 3.8E-04 | 1.1E-02 |       3.7E-02  OK|
 | P-Mass               | 1.22 | 9.6E-05 | 1.7E-03 |  5.3  7.1E-02  OK|
 +----------------------+------+---------+---------+------------------+
 | H-Energy             | 0.47 | 6.3E-04 | 1.2E-02 |  5.5  2.6E-03  OK|
 +----------------------+------+---------+---------+------------------+
 | Eddy Viscosity       | 0.48 | 2.1E-03 | 5.2E-02 |  7.7  1.9E-03  OK|
 +----------------------+------+---------+---------+------------------+
 ----------------------------------------------------------------------
 COEFFICIENT LOOP ITERATION =    4              CPU SECONDS = 1.563E+02
 ----------------------------------------------------------------------
 |       Equation       | Rate | RMS Res | Max Res |  Linear Solution |
 +----------------------+------+---------+---------+------------------+
 | U-Mom                | 0.52 | 1.6E-04 | 1.2E-02 |       6.2E-02  OK|
 | V-Mom                | 0.52 | 3.1E-04 | 1.3E-02 |       4.5E-02  OK|
 | W-Mom                | 0.53 | 2.0E-04 | 6.7E-03 |       6.2E-02  OK|
 | P-Mass               | 0.63 | 6.0E-05 | 1.4E-03 |  5.3  9.2E-02  OK|
 +----------------------+------+---------+---------+------------------+
 | H-Energy             | 0.42 | 2.6E-04 | 4.4E-03 |  5.6  1.9E-03  OK|
 +----------------------+------+---------+---------+------------------+
 | Eddy Viscosity       | 0.47 | 9.7E-04 | 2.6E-02 |  7.7  6.1E-03  OK|
 +----------------------+------+---------+---------+------------------+
 ----------------------------------------------------------------------
 COEFFICIENT LOOP ITERATION =    5              CPU SECONDS = 1.593E+02
 ----------------------------------------------------------------------
 |       Equation       | Rate | RMS Res | Max Res |  Linear Solution |
 +----------------------+------+---------+---------+------------------+
 | U-Mom                | 0.64 | 1.0E-04 | 8.5E-03 |       4.0E-02  OK|
 | V-Mom                | 0.57 | 1.8E-04 | 7.1E-03 |       2.7E-02  OK|
 | W-Mom                | 0.64 | 1.3E-04 | 4.4E-03 |       4.3E-02  OK|
 | P-Mass               | 0.64 | 3.9E-05 | 1.1E-03 |  9.7  7.8E-02  OK|
 +----------------------+------+---------+---------+------------------+
 | H-Energy             | 0.55 | 1.4E-04 | 2.1E-03 |  5.5  1.8E-03  OK|
 +----------------------+------+---------+---------+------------------+
 | Eddy Viscosity       | 0.60 | 5.8E-04 | 1.6E-02 |  7.7  8.5E-03  OK|
 +----------------------+------+---------+---------+------------------+
 ----------------------------------------------------------------------
 COEFFICIENT LOOP ITERATION =    6              CPU SECONDS = 1.624E+02
 ----------------------------------------------------------------------
 |       Equation       | Rate | RMS Res | Max Res |  Linear Solution |
 +----------------------+------+---------+---------+------------------+
 | U-Mom                | 0.64 | 6.6E-05 | 5.7E-03 |       5.1E-02  OK|
 | V-Mom                | 0.63 | 1.1E-04 | 4.7E-03 |       3.3E-02  OK|
 | W-Mom                | 0.65 | 8.4E-05 | 2.7E-03 |       5.0E-02  OK|
 | P-Mass               | 0.69 | 2.7E-05 | 9.1E-04 |  9.7  9.9E-02  OK|
 +----------------------+------+---------+---------+------------------+
 | H-Energy             | 0.60 | 8.7E-05 | 1.6E-03 |  5.5  1.7E-03  OK|
 +----------------------+------+---------+---------+------------------+
 | Eddy Viscosity       | 0.60 | 3.5E-04 | 8.5E-03 |  7.7  5.4E-03  OK|
 +----------------------+------+---------+---------+------------------+
 ----------------------------------------------------------------------
 COEFFICIENT LOOP ITERATION =    7              CPU SECONDS = 1.655E+02
 ----------------------------------------------------------------------
 |       Equation       | Rate | RMS Res | Max Res |  Linear Solution |
 +----------------------+------+---------+---------+------------------+
 | U-Mom                | 0.74 | 4.8E-05 | 3.8E-03 |       4.1E-02  OK|
 | V-Mom                | 0.69 | 7.7E-05 | 3.8E-03 |       2.6E-02  OK|
 | W-Mom                | 0.65 | 5.5E-05 | 2.1E-03 |       3.9E-02  OK|
 | P-Mass               | 0.72 | 1.9E-05 | 7.0E-04 | 14.0  7.8E-02  OK|
 +----------------------+------+---------+---------+------------------+
 | H-Energy             | 0.61 | 5.3E-05 | 1.4E-03 |  5.5  1.6E-03  OK|
 +----------------------+------+---------+---------+------------------+
 | Eddy Viscosity       | 0.61 | 2.1E-04 | 6.9E-03 |  7.7  3.2E-03  OK|
 +----------------------+------+---------+---------+------------------+

 +--------------------------------------------------------------------+
 | Writing transient file 4_full.trn                                  |
 |   Name   : Transient Results 1                                     |
 |   Type   : Standard                                                |
 |   Option : Time Interval                                           |
 +--------------------------------------------------------------------+


 ======================================================================
 |                      Timestepping Information                      |
 ----------------------------------------------------------------------
 |       Timestep       |  RMS Courant Number  |  Max Courant Number  |
 +----------------------+----------------------+----------------------+
 |      1.0000E-01      |          3.27        |         29.76        |
 ----------------------------------------------------------------------

 ======================================================================
 TIME STEP =     5 SIMULATION TIME = 5.0000E-01 CPU SECONDS = 1.991E+02
 ----------------------------------------------------------------------
 COEFFICIENT LOOP ITERATION =    1              CPU SECONDS = 1.991E+02
 ----------------------------------------------------------------------
 |       Equation       | Rate | RMS Res | Max Res |  Linear Solution |
 +----------------------+------+---------+---------+------------------+
 | U-Mom                | 0.86 | 1.2E-03 | 2.5E-02 |       5.9E-03  OK|
 | V-Mom                | 1.07 | 2.0E-03 | 6.0E-02 |       6.0E-03  OK|
 | W-Mom                | 0.91 | 1.8E-03 | 3.2E-02 |       7.1E-03  OK|
 | P-Mass               | 0.87 | 1.4E-04 | 2.7E-03 |  5.3  9.4E-02  OK|
 +----------------------+------+---------+---------+------------------+
 | H-Energy             | 0.96 | 1.3E-02 | 8.8E-02 |  5.6  6.5E-03  OK|
 +----------------------+------+---------+---------+------------------+
 | Eddy Viscosity       | 0.60 | 1.0E-02 | 1.9E-01 |  7.7  2.5E-03  OK|
 +----------------------+------+---------+---------+------------------+
 ----------------------------------------------------------------------
 COEFFICIENT LOOP ITERATION =    2              CPU SECONDS = 2.021E+02
 ----------------------------------------------------------------------
 |       Equation       | Rate | RMS Res | Max Res |  Linear Solution |
 +----------------------+------+---------+---------+------------------+
 | U-Mom                | 0.55 | 6.7E-04 | 3.4E-02 |       4.9E-03  OK|
 | V-Mom                | 0.85 | 1.7E-03 | 3.7E-02 |       1.7E-03  OK|
 | W-Mom                | 0.37 | 6.6E-04 | 1.8E-02 |       4.5E-03  OK|
 | P-Mass               | 0.47 | 6.5E-05 | 1.3E-03 |  9.7  3.7E-02  OK|
 +----------------------+------+---------+---------+------------------+
 | H-Energy             | 0.10 | 1.3E-03 | 2.2E-02 |  5.5  2.9E-03  OK|
 +----------------------+------+---------+---------+------------------+
 | Eddy Viscosity       | 0.26 | 2.6E-03 | 7.9E-02 |  7.7  9.4E-04  OK|
 +----------------------+------+---------+---------+------------------+
 ----------------------------------------------------------------------
 COEFFICIENT LOOP ITERATION =    3              CPU SECONDS = 2.052E+02
 ----------------------------------------------------------------------
 |       Equation       | Rate | RMS Res | Max Res |  Linear Solution |
 +----------------------+------+---------+---------+------------------+
 | U-Mom                | 0.37 | 2.5E-04 | 1.1E-02 |       3.6E-02  OK|
 | V-Mom                | 0.27 | 4.6E-04 | 1.2E-02 |       2.4E-02  OK|
 | W-Mom                | 0.49 | 3.2E-04 | 8.2E-03 |       3.1E-02  OK|
 | P-Mass               | 1.17 | 7.6E-05 | 1.2E-03 |  5.3  5.2E-02  OK|
 +----------------------+------+---------+---------+------------------+
 | H-Energy             | 0.48 | 6.0E-04 | 1.3E-02 |  5.6  1.6E-03  OK|
 +----------------------+------+---------+---------+------------------+
 | Eddy Viscosity       | 0.42 | 1.1E-03 | 2.7E-02 |  7.7  1.3E-03  OK|
 +----------------------+------+---------+---------+------------------+
 ----------------------------------------------------------------------
 COEFFICIENT LOOP ITERATION =    4              CPU SECONDS = 2.081E+02
 ----------------------------------------------------------------------
 |       Equation       | Rate | RMS Res | Max Res |  Linear Solution |
 +----------------------+------+---------+---------+------------------+
 | U-Mom                | 0.46 | 1.2E-04 | 5.4E-03 |       6.1E-02  OK|
 | V-Mom                | 0.51 | 2.4E-04 | 8.9E-03 |       4.4E-02  OK|
 | W-Mom                | 0.52 | 1.7E-04 | 5.3E-03 |       4.4E-02  OK|
 | P-Mass               | 0.63 | 4.8E-05 | 9.3E-04 |  5.3  5.9E-02  OK|
 +----------------------+------+---------+---------+------------------+
 | H-Energy             | 0.47 | 2.8E-04 | 7.6E-03 |  5.5  1.2E-03  OK|
 +----------------------+------+---------+---------+------------------+
 | Eddy Viscosity       | 0.50 | 5.6E-04 | 1.3E-02 |  7.7  3.8E-03  OK|
 +----------------------+------+---------+---------+------------------+
 ----------------------------------------------------------------------
 COEFFICIENT LOOP ITERATION =    5              CPU SECONDS = 2.112E+02
 ----------------------------------------------------------------------
 |       Equation       | Rate | RMS Res | Max Res |  Linear Solution |
 +----------------------+------+---------+---------+------------------+
 | U-Mom                | 0.66 | 7.6E-05 | 4.3E-03 |       7.1E-02  OK|
 | V-Mom                | 0.60 | 1.4E-04 | 6.1E-03 |       5.5E-02  OK|
 | W-Mom                | 0.67 | 1.1E-04 | 4.1E-03 |       4.7E-02  OK|
 | P-Mass               | 0.64 | 3.1E-05 | 8.0E-04 |  5.3  7.2E-02  OK|
 +----------------------+------+---------+---------+------------------+
 | H-Energy             | 0.55 | 1.6E-04 | 4.2E-03 |  5.5  1.2E-03  OK|
 +----------------------+------+---------+---------+------------------+
 | Eddy Viscosity       | 0.61 | 3.4E-04 | 9.0E-03 |  7.7  4.0E-03  OK|
 +----------------------+------+---------+---------+------------------+
 ----------------------------------------------------------------------
 COEFFICIENT LOOP ITERATION =    6              CPU SECONDS = 2.148E+02
 ----------------------------------------------------------------------
 |       Equation       | Rate | RMS Res | Max Res |  Linear Solution |
 +----------------------+------+---------+---------+------------------+
 | U-Mom                | 0.67 | 5.0E-05 | 2.8E-03 |       8.1E-02  OK|
 | V-Mom                | 0.67 | 9.6E-05 | 4.2E-03 |       6.1E-02  OK|
 | W-Mom                | 0.70 | 7.8E-05 | 3.3E-03 |       4.9E-02  OK|
 | P-Mass               | 0.70 | 2.2E-05 | 6.7E-04 |  5.3  8.8E-02  OK|
 +----------------------+------+---------+---------+------------------+
 | H-Energy             | 0.61 | 9.4E-05 | 2.9E-03 |  5.5  1.1E-03  OK|
 +----------------------+------+---------+---------+------------------+
 | Eddy Viscosity       | 0.61 | 2.1E-04 | 7.0E-03 |  7.7  3.3E-03  OK|
 +----------------------+------+---------+---------+------------------+


 ======================================================================
 |                      Timestepping Information                      |
 ----------------------------------------------------------------------
 |       Timestep       |  RMS Courant Number  |  Max Courant Number  |
 +----------------------+----------------------+----------------------+
 |      1.0000E-01      |          3.26        |         30.29        |
 ----------------------------------------------------------------------

 ======================================================================
 TIME STEP =     6 SIMULATION TIME = 6.0000E-01 CPU SECONDS = 2.189E+02
 ----------------------------------------------------------------------
 COEFFICIENT LOOP ITERATION =    1              CPU SECONDS = 2.189E+02
 ----------------------------------------------------------------------
 |       Equation       | Rate | RMS Res | Max Res |  Linear Solution |
 +----------------------+------+---------+---------+------------------+
 | U-Mom                | 0.87 | 1.1E-03 | 3.1E-02 |       1.2E-03  OK|
 | V-Mom                | 0.94 | 1.9E-03 | 5.5E-02 |       1.1E-03  OK|
 | W-Mom                | 0.81 | 1.5E-03 | 3.2E-02 |       9.1E-04  OK|
 | P-Mass               | 0.79 | 1.1E-04 | 2.5E-03 |  9.7  3.5E-02  OK|
 +----------------------+------+---------+---------+------------------+
 | H-Energy             | 0.91 | 1.2E-02 | 8.2E-02 |  5.6  3.8E-03  OK|
 +----------------------+------+---------+---------+------------------+
 | Eddy Viscosity       | 0.66 | 6.8E-03 | 1.0E-01 |  7.7  1.6E-03  OK|
 +----------------------+------+---------+---------+------------------+
 ----------------------------------------------------------------------
 COEFFICIENT LOOP ITERATION =    2              CPU SECONDS = 2.222E+02
 ----------------------------------------------------------------------
 |       Equation       | Rate | RMS Res | Max Res |  Linear Solution |
 +----------------------+------+---------+---------+------------------+
 | U-Mom                | 0.56 | 6.1E-04 | 2.5E-02 |       5.8E-03  OK|
 | V-Mom                | 0.77 | 1.4E-03 | 3.3E-02 |       1.8E-03  OK|
 | W-Mom                | 0.38 | 5.5E-04 | 1.7E-02 |       4.5E-03  OK|
 | P-Mass               | 0.52 | 5.7E-05 | 1.1E-03 |  9.7  4.2E-02  OK|
 +----------------------+------+---------+---------+------------------+
 | H-Energy             | 0.10 | 1.2E-03 | 2.5E-02 |  5.5  2.5E-03  OK|
 +----------------------+------+---------+---------+------------------+
 | Eddy Viscosity       | 0.24 | 1.6E-03 | 4.0E-02 |  7.7  7.7E-04  OK|
 +----------------------+------+---------+---------+------------------+
 ----------------------------------------------------------------------
 COEFFICIENT LOOP ITERATION =    3              CPU SECONDS = 2.253E+02
 ----------------------------------------------------------------------
 |       Equation       | Rate | RMS Res | Max Res |  Linear Solution |
 +----------------------+------+---------+---------+------------------+
 | U-Mom                | 0.36 | 2.2E-04 | 9.8E-03 |       4.0E-02  OK|
 | V-Mom                | 0.28 | 4.1E-04 | 1.8E-02 |       2.4E-02  OK|
 | W-Mom                | 0.47 | 2.6E-04 | 6.7E-03 |       3.1E-02  OK|
 | P-Mass               | 1.16 | 6.6E-05 | 1.4E-03 |  5.3  5.8E-02  OK|
 +----------------------+------+---------+---------+------------------+
 | H-Energy             | 0.48 | 5.6E-04 | 1.1E-02 |  5.6  9.6E-04  OK|
 +----------------------+------+---------+---------+------------------+
 | Eddy Viscosity       | 0.39 | 6.5E-04 | 1.8E-02 |  7.7  1.0E-03  OK|
 +----------------------+------+---------+---------+------------------+
 ----------------------------------------------------------------------
 COEFFICIENT LOOP ITERATION =    4              CPU SECONDS = 2.283E+02
[...]
 | H-Energy             | 0.98 | 6.8E-05 | 1.1E-03 |  5.6  1.7E-02  OK|
 +----------------------+------+---------+---------+------------------+
 | Eddy Viscosity       | 0.98 | 1.0E-04 | 2.7E-03 |  7.4  2.7E-02  OK|
 +----------------------+------+---------+---------+------------------+
 ----------------------------------------------------------------------
 COEFFICIENT LOOP ITERATION =    2              CPU SECONDS = 6.465E+03
 ----------------------------------------------------------------------
 |       Equation       | Rate | RMS Res | Max Res |  Linear Solution |
 +----------------------+------+---------+---------+------------------+
 | U-Mom                | 0.71 | 7.3E-05 | 5.1E-03 |       7.4E-03  OK|
 | V-Mom                | 0.83 | 1.1E-04 | 7.6E-03 |       8.2E-03  OK|
 | W-Mom                | 0.45 | 1.4E-05 | 1.5E-03 |       2.4E-02  OK|
 | P-Mass               | 0.79 | 1.2E-05 | 2.6E-04 | 14.0  3.6E-02  OK|
 +----------------------+------+---------+---------+------------------+
 | H-Energy             | 0.23 | 1.6E-05 | 3.1E-04 |  5.6  1.3E-02  OK|
 +----------------------+------+---------+---------+------------------+
 | Eddy Viscosity       | 0.56 | 5.7E-05 | 9.0E-04 |  7.4  3.8E-02  OK|
 +----------------------+------+---------+---------+------------------+
 ----------------------------------------------------------------------
 COEFFICIENT LOOP ITERATION =    3              CPU SECONDS = 6.469E+03
 ----------------------------------------------------------------------
 |       Equation       | Rate | RMS Res | Max Res |  Linear Solution |
 +----------------------+------+---------+---------+------------------+
 | U-Mom                | 0.74 | 5.4E-05 | 4.2E-03 |       2.4E-02  OK|
 | V-Mom                | 0.47 | 5.3E-05 | 3.5E-03 |       2.7E-02  OK|
 | W-Mom                | 0.58 | 7.9E-06 | 9.6E-04 |       7.5E-02  OK|
 | P-Mass               | 0.74 | 8.6E-06 | 2.4E-04 |  9.7  4.9E-02  OK|
 +----------------------+------+---------+---------+------------------+
 | H-Energy             | 0.47 | 7.5E-06 | 2.3E-04 |  5.6  1.0E-02  OK|
 +----------------------+------+---------+---------+------------------+
 | Eddy Viscosity       | 0.42 | 2.4E-05 | 6.0E-04 |  7.4  3.9E-02  OK|
 +----------------------+------+---------+---------+------------------+


 ======================================================================
 |                      Timestepping Information                      |
 ----------------------------------------------------------------------
 |       Timestep       |  RMS Courant Number  |  Max Courant Number  |
 +----------------------+----------------------+----------------------+
 |      1.0000E-01      |          7.13        |         26.39        |
 ----------------------------------------------------------------------

 ======================================================================
 TIME STEP =   300 SIMULATION TIME = 3.0000E+01 CPU SECONDS = 6.472E+03
 ----------------------------------------------------------------------
 COEFFICIENT LOOP ITERATION =    1              CPU SECONDS = 6.472E+03
 ----------------------------------------------------------------------
 |       Equation       | Rate | RMS Res | Max Res |  Linear Solution |
 +----------------------+------+---------+---------+------------------+
 | U-Mom                | 0.94 | 9.6E-05 | 5.7E-03 |       1.3E-02  OK|
 | V-Mom                | 0.66 | 9.0E-05 | 3.4E-03 |       1.2E-02  OK|
 | W-Mom                | 0.92 | 2.8E-05 | 8.4E-04 |       2.5E-02  OK|
 | P-Mass               | 0.89 | 1.3E-05 | 2.9E-04 |  9.7  7.4E-02  OK|
 +----------------------+------+---------+---------+------------------+
 | H-Energy             | 0.99 | 6.8E-05 | 1.1E-03 |  5.5  1.7E-02  OK|
 +----------------------+------+---------+---------+------------------+
 | Eddy Viscosity       | 1.02 | 1.0E-04 | 2.1E-03 |  7.4  2.6E-02  OK|
 +----------------------+------+---------+---------+------------------+

 ======================================================================
                      Convergence Warnings Summary
 ======================================================================

 +-------------------------+------------------------------------------+
 |     Equation Class      |      Solve Location       | Number of    |
 |                         |                           | Convergence  |
 |                         |                           | Failures     |
 +-------------------------+------------------------------------------+
 | Momentum and Mass       | DEFAULT                   |       3      |
 +-------------------------+---------------------------+--------------+
                   
 CFD Solver finished: Fri Dec  7 15:20:19 2018
 CFD Solver wall clock seconds: 1.6118E+03

 ======================================================================
              Termination and Interrupt Condition Summary
 ======================================================================
    
 CFD Solver: Run duration reached
   (Maximum simulation time)

 ======================================================================
              Boundary Flow and Total Source Term Summary
 ======================================================================

 +--------------------------------------------------------------------+
 |                               U-Mom                                |
 +--------------------------------------------------------------------+
 Boundary         : Default Domain Default                 -5.6672E+01
 Boundary         : in1                                     2.7111E-05
 Boundary         : in2                                    -3.1084E-05
 Boundary         : out                                     7.1612E+01
 Neg Accumulation : Default Domain                          1.1764E+02
                                                           -----------
 Domain Imbalance :                                         1.3258E+02

 +--------------------------------------------------------------------+
 |                               V-Mom                                |
 +--------------------------------------------------------------------+
 Boundary         : Default Domain Default                  3.8000E+01
 Boundary         : in1                                     5.7333E+04
 Boundary         : in2                                    -5.7329E+04
 Boundary         : out                                    -1.0995E+01
 Neg Accumulation : Default Domain                          1.2488E+02
                                                           -----------
 Domain Imbalance :                                         1.5599E+02

 +--------------------------------------------------------------------+
 |                               W-Mom                                |
 +--------------------------------------------------------------------+
 Boundary         : Default Domain Default                 -1.2495E+04
 Boundary         : in1                                    -6.6060E-06
 Boundary         : in2                                    -1.4937E-05
 Boundary         : out                                     1.2468E+04
 Neg Accumulation : Default Domain                          1.7832E+01
                                                           -----------
 Domain Imbalance :                                        -9.7254E+00

 +--------------------------------------------------------------------+
 |                               P-Mass                               |
 +--------------------------------------------------------------------+
 Boundary         : in1                                     1.5000E+03
 Boundary         : in2                                     1.5000E+03
 Boundary         : out                                    -2.9998E+03
                                                           -----------
 Domain Imbalance :                                         1.8530E-01

 +--------------------------------------------------------------------+
 |                              H-Energy                              |
 +--------------------------------------------------------------------+
 Boundary         : in1                                     1.0569E+08
 Boundary         : in2                                    -8.2484E+07
 Boundary         : out                                    -2.1403E+07
 Neg Accumulation : Default Domain                          9.2061E+05
                                                           -----------
 Domain Imbalance :                                         2.7260E+06


 +--------------------------------------------------------------------+
 |                     Normalised Imbalance Summary                   |
 +--------------------------------------------------------------------+
 |       Equation       |      Maximum Flow     |     Imbalance (%)   |
 +--------------------------------------------------------------------+
 | U-Mom                |       5.7333E+04      |        0.2312       |
 | V-Mom                |       5.7333E+04      |        0.2721       |
 | W-Mom                |       5.7333E+04      |       -0.0170       |
 | P-Mass               |       2.9998E+03      |        0.0062       |
 +----------------------+-----------------------+---------------------+
 | H-Energy             |       1.0569E+08      |        2.5792       |
 +----------------------+-----------------------+---------------------+

 ======================================================================
                     Wall Force and Moment Summary
 ======================================================================
                                                                          
 Notes:
 1. Pressure integrals exclude the reference pressure.  To include
    it, set the expert parameter 'include pref in forces = t'.


 +--------------------------------------------------------------------+
 |                      Pressure Force On Walls                       |
 +--------------------------------------------------------------------+
                                    X-Comp.      Y-Comp.      Z-Comp.

 Domain Group: Default Domain

 Default Domain Default           5.0969E+01  -3.5906E+01   1.2552E+04
                                  -----------  -----------  -----------
 Domain Group Totals :            5.0969E+01  -3.5906E+01   1.2552E+04


 +--------------------------------------------------------------------+
 |                       Viscous Force On Walls                       |
 +--------------------------------------------------------------------+
                                    X-Comp.      Y-Comp.      Z-Comp.

 Domain Group: Default Domain

 Default Domain Default           4.7110E+00  -1.4983E+00  -5.6786E+01
                                  -----------  -----------  -----------
 Domain Group Totals :            4.7110E+00  -1.4983E+00  -5.6786E+01


 +--------------------------------------------------------------------+
 |                      Pressure Moment On Walls                      |
 +--------------------------------------------------------------------+
                                    X-Comp.      Y-Comp.      Z-Comp.

 Domain Group: Default Domain

 Default Domain Default          -2.2250E+01  -5.3412E+02  -9.8019E+04
                                  -----------  -----------  -----------
 Domain Group Totals :           -2.2250E+01  -5.3412E+02  -9.8019E+04


 +--------------------------------------------------------------------+
 |                       Viscous Moment On Walls                      |
 +--------------------------------------------------------------------+
                                    X-Comp.      Y-Comp.      Z-Comp.

 Domain Group: Default Domain

 Default Domain Default           1.9985E+00   1.0190E+01  -3.9029E+03
                                  -----------  -----------  -----------
 Domain Group Totals :            1.9985E+00   1.0190E+01  -3.9029E+03


 +--------------------------------------------------------------------+
 |                   Locations of Maximum Residuals                   |
 +--------------------------------------------------------------------+
 |       Equation       |      Domain Name      |     Node Number     |
 +--------------------------------------------------------------------+
 | U-Mom                | Default Domain        |          50608      |
 | V-Mom                | Default Domain        |          50796      |
 | W-Mom                | Default Domain        |          14215      |
 | P-Mass               | Default Domain        |          50935      |
 +----------------------+-----------------------+---------------------+
 | H-Energy             | Default Domain        |          52727      |
 +----------------------+-----------------------+---------------------+
 | Eddy Viscosity       | Default Domain        |           8696      |
 +----------------------+-----------------------+---------------------+

 +--------------------------------------------------------------------+
 |                     Average Scale Information                      |
 +--------------------------------------------------------------------+

 Domain Name : Default Domain
     Global Length                                         = 3.2167E+00
     Minimum Extent                                        = 4.0000E+00
     Maximum Extent                                        = 6.0000E+00
     Density                                               = 9.9700E+02
     Dynamic Viscosity                                     = 8.8990E-04
     Velocity                                              = 4.6991E+00
     Advection Time                                        = 6.8454E-01
     RMS Courant Number                                    = 7.1452E+00
     Maximum Courant Number                                = 2.6455E+01
     Reynolds Number                                       = 1.6935E+07
     Thermal Conductivity                                  = 6.0690E-01
     Specific Heat Capacity at Constant Pressure           = 4.1817E+03
     Prandtl Number                                        = 6.1316E+00
     Temperature Range                                     = 3.0095E+01

 +--------------------------------------------------------------------+
 |                     Variable Range Information                     |
 +--------------------------------------------------------------------+

 Domain Name : Default Domain
 +--------------------------------------------------------------------+
 |      Variable Name                         |    min    |    max    |
 +--------------------------------------------------------------------+
 | Density                                    |  9.97E+02 |  9.97E+02 |
 | Specific Heat Capacity at Constant Pressure|  4.18E+03 |  4.18E+03 |
 | Dynamic Viscosity                          |  8.90E-04 |  8.90E-04 |
 | Thermal Conductivity                       |  6.07E-01 |  6.07E-01 |
 | Static Entropy                             | -1.89E+02 |  2.31E+02 |
 | Velocity u                                 | -7.15E+00 |  7.13E+00 |
 | Velocity v                                 | -7.17E+00 |  7.14E+00 |
 | Velocity w                                 | -5.81E+00 |  2.24E+00 |
 | Pressure                                   | -1.25E+04 |  7.20E+04 |
 | Kinematic Eddy Viscosity                   |  8.45E-06 |  1.72E-01 |
 | Eddy Viscosity                             |  7.53E-03 |  1.72E+02 |
 | Temperature                                |  2.85E+02 |  3.15E+02 |
 | Static Enthalpy                            | -5.52E+04 |  7.07E+04 |
 +--------------------------------------------------------------------+

 +--------------------------------------------------------------------+
 |           CPU Requirements of Numerical Solution - Total           |
 +--------------------------------------------------------------------+

 Subsystem Name                  Discretization       Linear Solution
                                (secs.   %total)     (secs.   %total) 
 ----------------------------------------------------------------------
 Momentum and Mass              1.65E+03  25.4 %     6.36E+02   9.8 %
 Heat Transfer                  4.63E+02   7.1 %     1.81E+02   2.8 %
 Eddy Viscosity                 3.61E+02   5.6 %     1.88E+02   2.9 %
                                -------- -------     --------  ------
 Subsystem Summary              2.48E+03  38.1 %     1.00E+03  15.4 %

 File Reading                   1.18E+00    0.0 %
 Search Calculations            7.93E-03    0.0 %
 Variable Updates               5.34E+02    8.2 %
 File Writing                   4.07E+02    6.3 %
 Miscellaneous                  2.08E+03   32.0 %
                                --------
 Total                          6.51E+03

 +--------------------------------------------------------------------+
 |                   Job Information at End of Run                    |
 +--------------------------------------------------------------------+

 Job finished:   Fri Dec  7 15:20:26 2018

 Total wall clock time: 1.626E+03 seconds
             or: (          0:         0:        27:     6.236 )
                 (       Days:     Hours:   Minutes:   Seconds )



 --> Final synchronization point reached by all partitions.
End of solution stage.

 +--------------------------------------------------------------------+
 | The following transient and backup files written by the ANSYS CFX  |
 | solver have been saved in the directory D:/CFD                     |
 | BackUps/CFD-Static-Mixer/StaticMixerDX_pending/dp6_CFX_Solution/F- |
 | luid Flow CFX_001:                                                 |
 |                                                                    |
 | 96_full.trn, 92_full.trn, 8_full.trn, 88_full.trn, 84_full.trn,    |
 | 80_full.trn, 76_full.trn, 72_full.trn, 68_full.trn, 64_full.trn,   |
 | 60_full.trn, 56_full.trn, 52_full.trn, 4_full.trn, 48_full.trn,    |
 | 44_full.trn, 40_full.trn, 36_full.trn, 32_full.trn, 296_full.trn,  |
 | 292_full.trn, 28_full.trn, 288_full.trn, 284_full.trn,             |
 | 280_full.trn, 276_full.trn, 272_full.trn, 268_full.trn,            |
 | 264_full.trn, 260_full.trn, 256_full.trn, 252_full.trn,            |
 | 24_full.trn, 248_full.trn, 244_full.trn, 240_full.trn,             |
 | 236_full.trn, 232_full.trn, 228_full.trn, 224_full.trn,            |
 | 220_full.trn, 216_full.trn, 212_full.trn, 20_full.trn,             |
 | 208_full.trn, 204_full.trn, 200_full.trn, 196_full.trn,            |
 | 192_full.trn, 188_full.trn, 184_full.trn, 180_full.trn,            |
 | 176_full.trn, 172_full.trn, 16_full.trn, 168_full.trn,             |
 | 164_full.trn, 160_full.trn, 156_full.trn, 152_full.trn,            |
 | 148_full.trn, 144_full.trn, 140_full.trn, 136_full.trn,            |
 | 132_full.trn, 12_full.trn, 128_full.trn, 124_full.trn,             |
 | 120_full.trn, 116_full.trn, 112_full.trn, 108_full.trn,            |
 | 104_full.trn, 100_full.trn, 0_full.trn                             |
 +--------------------------------------------------------------------+


 +--------------------------------------------------------------------+
 | The results from this run of the ANSYS CFX Solver have been        |
 | written to D:/CFD                                                  |
 | BackUps/CFD-Static-Mixer/StaticMixerDX_pending/dp6_CFX_Solution/F- |
 | luid Flow CFX_001.res                                              |
 +--------------------------------------------------------------------+


 +--------------------------------------------------------------------+
 | For CFX runs launched from Workbench, the final locations of       |
 | directories and files generated may differ from those shown.       |
 +--------------------------------------------------------------------+


This run of the ANSYS CFX Solver has finished.
