 This run of the CFX Release 19.1 Solver started at 11:41:42 on 10 Dec
 2018 by user jc2182 on ENPC-LAB121 (intel_xeon64.sse2_winnt) using the
 command:
 
  "C:\Program Files\ANSYS Inc\v191\CFX\bin\perllib\cfx5solve.pl" -batch
    -ccl runInput.ccl -fullname "Fluid Flow CFX_003"
 
 Release 19.1
 
  Point Releases and Patches installed:
  ANSYS, Inc. Products Release 19.1
  SpaceClaim Release 19.1
  Autodyn Release 19.1
  LS-DYNA Release 19.1
  CFD-Post only Release 19.1
  CFX (includes CFD-Post) Release 19.1
  Chemkin Release 19.1
  EnSight Release 19.1
  FENSAP-ICE Release 19.1
  Fluent (includes CFD-Post) Release 19.1
  Forte Release 19.1
  Polyflow (includes CFD-Post) Release 19.1
  TurboGrid Release 19.1
  ICEM CFD Release 19.1
  Customization Files for User Programmable Features Release 19.1
  Mechanical Products Release 19.1
  Icepak (includes CFD-Post) Release 19.1
  Remote Solve Manager Standalone Services Release 19.1
  ACIS Geometry Interface Release 19.1
  Catia, Version 5 Geometry Interface Release 19.1
  NX Geometry Interface Release 19.1
  Parasolid Geometry Interface  Release 19.1
  ANSYS, Inc. License Manager Release 19.1
 
 Setting up CFX Solver run ...
 
 
 +--------------------------------------------------------------------+
 |                                                                    |
 |                    CFX Command Language for Run                    |
 |                                                                    |
 +--------------------------------------------------------------------+
 
 LIBRARY:
   CEL:
     EXPRESSIONS:
       inMassFlow = 1500 [kg s^-1]
     END
   END
   MATERIAL: Water
     Material Description = Water (liquid)
     Material Group = Water Data, Constant Property Liquids
     Option = Pure Substance
     Thermodynamic State = Liquid
     PROPERTIES:
       Option = General Material
       EQUATION OF STATE:
         Density = 997.0 [kg m^-3]
         Molar Mass = 18.02 [kg kmol^-1]
         Option = Value
       END
       SPECIFIC HEAT CAPACITY:
         Option = Value
         Specific Heat Capacity = 4181.7 [J kg^-1 K^-1]
         Specific Heat Type = Constant Pressure
       END
       REFERENCE STATE:
         Option = Specified Point
         Reference Pressure = 1 [atm]
         Reference Specific Enthalpy = 0.0 [J/kg]
         Reference Specific Entropy = 0.0 [J/kg/K]
         Reference Temperature = 25 [C]
       END
       DYNAMIC VISCOSITY:
         Dynamic Viscosity = 8.899E-4 [kg m^-1 s^-1]
         Option = Value
       END
       THERMAL CONDUCTIVITY:
         Option = Value
         Thermal Conductivity = 0.6069 [W m^-1 K^-1]
       END
       ABSORPTION COEFFICIENT:
         Absorption Coefficient = 1.0 [m^-1]
         Option = Value
       END
       SCATTERING COEFFICIENT:
         Option = Value
         Scattering Coefficient = 0.0 [m^-1]
       END
       REFRACTIVE INDEX:
         Option = Value
         Refractive Index = 1.0 [m m^-1]
       END
       THERMAL EXPANSIVITY:
         Option = Value
         Thermal Expansivity = 2.57E-04 [K^-1]
       END
     END
   END
 END
 FLOW: Flow Analysis 1
   SOLUTION UNITS:
     Angle Units = [rad]
     Length Units = [m]
     Mass Units = [kg]
     Solid Angle Units = [sr]
     Temperature Units = [K]
     Time Units = [s]
   END
   ANALYSIS TYPE:
     Option = Steady State
     EXTERNAL SOLVER COUPLING:
       Option = None
     END
   END
   DOMAIN: Default Domain
     Coord Frame = Coord 0
     Domain Type = Fluid
     Location = B17
     BOUNDARY: Default Domain Default
       Boundary Type = WALL
       Location = F12.17,F14.17,F16.17,F19.17,F20.17,F21.17
       BOUNDARY CONDITIONS:
         HEAT TRANSFER:
           Option = Adiabatic
         END
         MASS AND MOMENTUM:
           Option = No Slip Wall
         END
         WALL ROUGHNESS:
           Option = Smooth Wall
         END
       END
     END
     BOUNDARY: in1
       Boundary Type = INLET
       Location = in1
       BOUNDARY CONDITIONS:
         FLOW DIRECTION:
           Option = Normal to Boundary Condition
         END
         FLOW REGIME:
           Option = Subsonic
         END
         HEAT TRANSFER:
           Option = Static Temperature
           Static Temperature = 315 [K]
         END
         MASS AND MOMENTUM:
           Mass Flow Rate = inMassFlow
           Mass Flow Rate Area = As Specified
           Option = Mass Flow Rate
         END
         TURBULENCE:
           Option = Medium Intensity and Eddy Viscosity Ratio
         END
       END
     END
     BOUNDARY: in2
       Boundary Type = INLET
       Location = in2
       BOUNDARY CONDITIONS:
         FLOW DIRECTION:
           Option = Normal to Boundary Condition
         END
         FLOW REGIME:
           Option = Subsonic
         END
         HEAT TRANSFER:
           Option = Static Temperature
           Static Temperature = 285 [K]
         END
         MASS AND MOMENTUM:
           Mass Flow Rate = inMassFlow
           Mass Flow Rate Area = As Specified
           Option = Mass Flow Rate
         END
         TURBULENCE:
           Option = Medium Intensity and Eddy Viscosity Ratio
         END
       END
     END
     BOUNDARY: out
       Boundary Type = OUTLET
       Location = out
       BOUNDARY CONDITIONS:
         FLOW REGIME:
           Option = Subsonic
         END
         MASS AND MOMENTUM:
           Option = Static Pressure
           Relative Pressure = 0 [Pa]
         END
       END
     END
     DOMAIN MODELS:
       BUOYANCY MODEL:
         Option = Non Buoyant
       END
       DOMAIN MOTION:
         Option = Stationary
       END
       MESH DEFORMATION:
         Option = None
       END
       REFERENCE PRESSURE:
         Reference Pressure = 1 [atm]
       END
     END
     FLUID DEFINITION: Fluid 1
       Material = Water
       Option = Material Library
       MORPHOLOGY:
         Option = Continuous Fluid
       END
     END
     FLUID MODELS:
       COMBUSTION MODEL:
         Option = None
       END
       HEAT TRANSFER MODEL:
         Option = Thermal Energy
       END
       THERMAL RADIATION MODEL:
         Option = None
       END
       TURBULENCE MODEL:
         Option = k epsilon
       END
       TURBULENT WALL FUNCTIONS:
         Option = Scalable
       END
     END
   END
   OUTPUT CONTROL:
     RESULTS:
       File Compression Level = Default
       Option = Standard
     END
   END
   SOLVER CONTROL:
     Turbulence Numerics = High Resolution
     ADVECTION SCHEME:
       Option = High Resolution
     END
     CONVERGENCE CONTROL:
       Length Scale Option = Conservative
       Maximum Number of Iterations = 100
       Minimum Number of Iterations = 5
       Timescale Control = Auto Timescale
       Timescale Factor = 1.0
     END
     CONVERGENCE CRITERIA:
       Residual Target = 1.E-4
       Residual Type = RMS
     END
     DYNAMIC MODEL CONTROL:
       Global Dynamic Model Control = On
     END
   END
 END
 COMMAND FILE:
   Version = 19.1
   Results Version = 19.1
 END
 PARAMETERIZATION:
   INPUT FIELD: inMassFlow
     Expression Name = inMassFlow
     Method = Expression
   END
 END
 SIMULATION CONTROL:
   EXECUTION CONTROL:
     EXECUTABLE SELECTION:
       Double Precision = No
       Large Problem = No
     END
     INTERPOLATOR STEP CONTROL:
       Runtime Priority = Standard
       MEMORY CONTROL:
         Memory Allocation Factor = 1.0
       END
     END
     PARALLEL HOST LIBRARY:
       HOST DEFINITION: enpclab121
         Remote Host Name = ENPC-LAB121
         Host Architecture String = winnt-amd64
         Installation Root = C:\Program Files\ANSYS Inc\v%v\CFX
       END
     END
     PARTITIONER STEP CONTROL:
       Multidomain Option = Automatic
       Runtime Priority = Standard
       MEMORY CONTROL:
         Memory Allocation Factor = 1.0
       END
       PARTITION SMOOTHING:
         Maximum Partition Smoothing Sweeps = 100
         Option = Smooth
       END
       PARTITIONING TYPE:
         MeTiS Type = k-way
         Option = MeTiS
         Partition Size Rule = Automatic
       END
     END
     RUN DEFINITION:
       Run Mode = Full
       Solver Input File = Fluid Flow CFX.def
       Solver Results File = D:/CFD \
         BackUps/CFD-Static-Mixer/StaticMixerDX_pending/dp14_CFX_Solution/Flui\
         d Flow CFX_003.res
       INITIAL VALUES SPECIFICATION:
         INITIAL VALUES CONTROL:
           Use Mesh From = Solver Input File
           Continue History From = Workbench Initial Values
         END
         INITIAL VALUES: Workbench Initial Values
           Option = Results File
           File Name = Fluid Flow CFX_002.res
         END
       END
     END
     SOLVER STEP CONTROL:
       Runtime Priority = Standard
       MEMORY CONTROL:
         Memory Allocation Factor = 1.0
       END
       PARALLEL ENVIRONMENT:
         Number of Processes = 1
         Start Method = Serial
       END
     END
   END
 END
 
 
 +--------------------------------------------------------------------+
 |                                                                    |
 |                  Interpolation of Initial Values                   |
 |                                                                    |
 +--------------------------------------------------------------------+
 
 


 +--------------------------------------------------------------------+
 |                                                                    |
 |                    ANSYS(R) CFX(R) Interpolator                    |
 |                                                                    |
 | Release 19.1                                                       |
 | Build 19.1 2018-04-17T13:27:50.069000                              |
 | Tue Apr 17 15:02:11 GMTDT 2018                                     |
 |                                                                    |
 |                        Executable Attributes                       |
 |                                                                    |
 |           single-64bit-int32-archfort-optimised-std-lcomp          |
 |                                                                    |
 | (C) 1996-2018 ANSYS, Inc.                                          |
 |                                                                    |
 | All rights reserved. Unauthorized use, distribution or duplication |
 | is prohibited. This product is subject to U.S. laws governing      |
 | export and re-export. For full Legal Notice, see documentation.    |
 +--------------------------------------------------------------------+




 +--------------------------------------------------------------------+
 |                  Job Information at Start of Run                   |
 +--------------------------------------------------------------------+

 Run mode:       serial run

 Host computer:  ENPC-LAB121 (PID:1408)

 Job started:    Mon Dec 10 11:41:44 2018


 +--------------------------------------------------------------------+
 |        Memory Allocated for Run  (Actual usage may be less)        |
 +--------------------------------------------------------------------+

           | Real       | Integer    | Character | Logical  | Double
 ----------+------------+------------+-----------+----------+----------
 Mwords    |       1.62 |       1.93 |      0.20 |     0.01 |     0.08
 Mbytes    |       6.16 |       7.36 |      0.19 |     0.04 |     0.63
 ----------+------------+------------+-----------+----------+----------


 +--------------------------------------------------------------------+
 |                  Host Memory Information (Mbytes)                  |
 +--------------------------------------------------------------------+
 |          Host           |     System     |   Allocated    |   %    |
 +-------------------------+----------------+----------------+--------+
 | ENPC-LAB121             |     16220.89   |        14.38   |   0.09 |
 +-------------------------+----------------+----------------+--------+

 ======================================================================
               Interpolating Onto Domain "Default Domain"
 ======================================================================

 Total Number of Nodes in the Target Domain              =        27390
 Bounding Box Volume of the Target Mesh                  =  9.60000E+01


 Checking all source domains from the source file:
   Target mesh is different from domain "Default Domain".

 Searching for Candidate Source Domains:
   Domain "Default Domain"
     Number of Mapped Nodes                     =        25604 ( 93.5%)
     Bounding Box Overlap Volume                =  9.60000E+01 (100.0%)
   Setting Up Unmapped Nodes:
     Number of Unmapped Nodes                   =         1786 (  6.5%)

 Start interpolation of variables: 
   Source Domain Name                                    Mapped Nodes
   Default Domain                                        25604 ( 93.5%)

 +--------------------------------------------------------------------+
 |                     Variable Range Information                     |
 +--------------------------------------------------------------------+
 +--------------------------------------------------------------------+
 |      Variable Name                         |    min    |    max    |
 +--------------------------------------------------------------------+
 | Thermal Conductivity                       |  6.07E-01 |  6.07E-01 |
 | Courant Number                             |  8.61E-01 |  4.15E+01 |
 | Density                                    |  9.97E+02 |  9.97E+02 |
 | Static Enthalpy                            | -5.50E+04 |  7.05E+04 |
 | Static Entropy                             | -1.89E+02 |  2.30E+02 |
 | Pressure                                   | -8.69E+03 |  6.28E+04 |
 | Specific Heat Capacity at Constant Pressure|  4.18E+03 |  4.18E+03 |
 | Specific Heat Capacity at Constant Volume  |  4.18E+03 |  4.18E+03 |
 | Turbulence Eddy Dissipation                |  2.93E-04 |  9.42E+01 |
 | Turbulence Eddy Frequency                  |  6.21E+00 |  1.60E+03 |
 | Temperature                                |  2.85E+02 |  3.15E+02 |
 | Turbulence Kinetic Energy                  |  1.02E-04 |  4.27E+00 |
 | Velocity                                   |  2.04E-01 |  7.10E+00 |
 | Dynamic Viscosity                          |  8.90E-04 |  8.90E-04 |
 | Eddy Viscosity                             |  1.31E-03 |  3.19E+02 |
 +--------------------------------------------------------------------+

 +--------------------------------------------------------------------+
 |                 CPU Requirements of Interpolation                  |
 +--------------------------------------------------------------------+

 Interpolation Step              Time    Percentage
                                (secs.   %total)
 ----------------------------------------------------------------------
 Tree Setup                     3.16E-01    8.2 %
 Interpolation                  1.43E+00   36.9 %
 Unmatched Nodes                6.10E-02    1.6 %
 Miscellaneous                  2.07E+00   53.4 %
                                --------
 Total                          3.87E+00

 +--------------------------------------------------------------------+
 |                   Job Information at End of Run                    |
 +--------------------------------------------------------------------+

 Host computer:  ENPC-LAB121 (PID:1408)

 Job finished:   Mon Dec 10 11:41:48 2018

 Total wall clock time: 3.865E+00 seconds
             or: (          0:         0:         0:     3.865 )
                 (       Days:     Hours:   Minutes:   Seconds )

 
 +--------------------------------------------------------------------+
 |                                                                    |
 |                               Solver                               |
 |                                                                    |
 +--------------------------------------------------------------------+
 



 +--------------------------------------------------------------------+
 |                                                                    |
 |                       ANSYS(R) CFX(R) Solver                       |
 |                                                                    |
 | Release 19.1                                                       |
 | Build 19.1 2018-04-17T13:27:50.069000                              |
 | Tue Apr 17 15:02:11 GMTDT 2018                                     |
 |                                                                    |
 |                        Executable Attributes                       |
 |                                                                    |
 |           single-64bit-int32-archfort-optimised-std-lcomp          |
 |                                                                    |
 | (C) 1996-2018 ANSYS, Inc.                                          |
 |                                                                    |
 | All rights reserved. Unauthorized use, distribution or duplication |
 | is prohibited. This product is subject to U.S. laws governing      |
 | export and re-export. For full Legal Notice, see documentation.    |
 +--------------------------------------------------------------------+




 +--------------------------------------------------------------------+
 |                  Job Information at Start of Run                   |
 +--------------------------------------------------------------------+

 Run mode:       serial run

 Host computer:  ENPC-LAB121 (PID:1692)

 Job started:    Mon Dec 10 11:41:52 2018

 +--------------------------------------------------------------------+
 |                        License Information                         |
 +--------------------------------------------------------------------+
 
 License Cap:    ANSYS CFX Solver (Max 128K Nodes)
 License ID:     VIGO_campus_bath_ac_uk-SYSTEM-1456-2441061


 +--------------------------------------------------------------------+
 |        Memory Allocated for Run  (Actual usage may be less)        |
 +--------------------------------------------------------------------+

           | Real       | Integer    | Character | Logical  | Double
 ----------+------------+------------+-----------+----------+----------
 Mwords    |      17.41 |       4.81 |      7.26 |     0.12 |     0.90
 Mbytes    |      66.40 |      18.34 |      6.93 |     0.46 |     6.83
 ----------+------------+------------+-----------+----------+----------


 +--------------------------------------------------------------------+
 |                  Host Memory Information (Mbytes)                  |
 +--------------------------------------------------------------------+
 |          Host           |     System     |   Allocated    |   %    |
 +-------------------------+----------------+----------------+--------+
 | ENPC-LAB121             |     16220.89   |        98.96   |   0.61 |
 +-------------------------+----------------+----------------+--------+


 +--------------------------------------------------------------------+
 |                     ****** Notice ******                           |
 | The Wall Heat Transfer Coefficient written to the results file for |
 | any turbulent phase with heat transfer is based on the turbulent   |
 | wall function coefficient. It is consistent with the Wall Heat Flux|
 | the wall temperature, and the Wall Adjacent Temperature            |
 | (near-wall temperature).  If you would like it to be based on a    |
 | user-specified bulk temperature instead, please set the expert     |
 | parameter "tbulk for htc = <value>".                               |
 +--------------------------------------------------------------------+

 +--------------------------------------------------------------------+
 |                      Topology Simplification                       |
 +--------------------------------------------------------------------+

 +--------------------------------------------------------------------+
 |                       ****** Warning ******                        |
 |                                                                    |
 | Topology simplification is activated with the following            |
 | restrictions:                                                      |
 |                                                                    |
 | - Mesh regions referenced only within User Fortran and NOT         |
 |   in the command file will cause the solver to stop.               |
 | - The solver will stop during any "Edit Run in Progress" step      |
 |   if new 2D regions are referenced.                                |
 +--------------------------------------------------------------------+

 +--------------------------------------------------------------------+
 |                          Mesh Statistics                           |
 +--------------------------------------------------------------------+
 | Domain Name          | Orthog. Angle | Exp. Factor  | Aspect Ratio |
 +----------------------+---------------+--------------+--------------+
 |                      | Minimum [deg] |   Maximum    |    Maximum   |
 +----------------------+---------------+--------------+--------------+
 | Default Domain       |       30.4 ok |        10 ok |        28 OK |
 +----------------------+---------------+--------------+--------------+
 |                      |  %!  %ok  %OK | %!  %ok  %OK | %!  %ok  %OK |
 +----------------------+---------------+--------------+--------------+
 | Default Domain       |   0    1   99 |  0   <1  100 |  0    0  100 |
 +----------------------+---------------+--------------+--------------+

 Domain Name : Default Domain

     Total Number of Nodes                                =       27390

     Total Number of Elements                             =       98643
         Total Number of Tetrahedrons                     =       72028
         Total Number of Prisms                           =       26615

     Total Number of Faces                                =        7213

 +--------------------------------------------------------------------+
 |      Initial Conditions Supplied by Fields in the Input Files      |
 +--------------------------------------------------------------------+

 Domain Name : Default Domain
     Courant Number
     Eddy Viscosity
     Pressure
     Specific Heat Capacity at Constant Pressure
     Static Enthalpy
     Static Entropy
     Temperature
     Turbulence Eddy Dissipation
     Turbulence Eddy Frequency
     Turbulence Kinetic Energy
     Velocity

 +--------------------------------------------------------------------+
 |                     Average Scale Information                      |
 +--------------------------------------------------------------------+

 Domain Name : Default Domain
     Global Length                                         = 3.2212E+00
     Minimum Extent                                        = 4.0000E+00
     Maximum Extent                                        = 6.0000E+00
     Density                                               = 9.9700E+02
     Dynamic Viscosity                                     = 8.8990E-04
     Velocity                                              = 4.9685E+00
     Advection Time                                        = 6.4833E-01
     Reynolds Number                                       = 1.7931E+07
     Thermal Conductivity                                  = 6.0690E-01
     Specific Heat Capacity at Constant Pressure           = 4.1817E+03
     Prandtl Number                                        = 6.1316E+00
     Temperature Range                                     = 3.0020E+01

 +--------------------------------------------------------------------+
 |                Checking for Isolated Fluid Regions                 |
 +--------------------------------------------------------------------+
 
 No isolated fluid regions were found.

 +--------------------------------------------------------------------+
 |              The Equations Solved in This Calculation              |
 +--------------------------------------------------------------------+

 Subsystem : Momentum and Mass

   U-Mom
   V-Mom
   W-Mom
   P-Mass

 Subsystem : Heat Transfer

   H-Energy

 Subsystem : TurbKE and Diss.K

   K-TurbKE
   E-Diss.K
                   
 CFD Solver started: Mon Dec 10 11:41:55 2018


 +--------------------------------------------------------------------+
 |                       Convergence History                          |
 +--------------------------------------------------------------------+

 ======================================================================
 |                        Timescale Information                       |
 ----------------------------------------------------------------------
 |       Equation       |         Type          |      Timescale      |
 +----------------------+-----------------------+---------------------+
 | U-Mom                | Auto Timescale        |     2.01221E-01     |
 | V-Mom                | Auto Timescale        |     2.01221E-01     |
 | W-Mom                | Auto Timescale        |     2.01221E-01     |
 +----------------------+-----------------------+---------------------+
 | H-Energy             | Auto Timescale        |     2.01221E-01     |
 +----------------------+-----------------------+---------------------+
 | K-TurbKE             | Auto Timescale        |     2.01221E-01     |
 | E-Diss.K             | Auto Timescale        |     2.01221E-01     |
 +----------------------+-----------------------+---------------------+

 ======================================================================
 OUTER LOOP ITERATION =  155 (    1) CPU SECONDS = 1.691E+02 (2.884E+00)
 ----------------------------------------------------------------------
 |       Equation       | Rate | RMS Res | Max Res |  Linear Solution |
 +----------------------+------+---------+---------+------------------+
 | U-Mom                | 0.00 | 2.9E-03 | 6.6E-02 |       1.1E-01  ok|
 | V-Mom                | 0.00 | 3.3E-03 | 1.1E-01 |       1.0E-01  ok|
 | W-Mom                | 0.00 | 1.7E-03 | 3.6E-02 |       9.8E-02  OK|
 | P-Mass               | 0.00 | 1.3E-03 | 2.0E-02 |  5.2  7.1E-02  OK|
 +----------------------+------+---------+---------+------------------+
 | H-Energy             | 0.00 | 4.6E-03 | 1.0E-01 |  5.4  3.7E-02  OK|
 +----------------------+------+---------+---------+------------------+
 | K-TurbKE             | 0.00 | 4.5E-03 | 3.7E-02 |  5.4  4.8E-02  OK|
 | E-Diss.K             | 0.00 | 3.6E-02 | 8.5E-01 |  7.2  4.9E-03  OK|
 +----------------------+------+---------+---------+------------------+

 ======================================================================
 |                        Timescale Information                       |
 ----------------------------------------------------------------------
 |       Equation       |         Type          |      Timescale      |
 +----------------------+-----------------------+---------------------+
 | U-Mom                | Auto Timescale        |     2.05156E-01     |
 | V-Mom                | Auto Timescale        |     2.05156E-01     |
 | W-Mom                | Auto Timescale        |     2.05156E-01     |
 +----------------------+-----------------------+---------------------+
 | H-Energy             | Auto Timescale        |     2.05156E-01     |
 +----------------------+-----------------------+---------------------+
 | K-TurbKE             | Auto Timescale        |     2.05156E-01     |
 | E-Diss.K             | Auto Timescale        |     2.05156E-01     |
 +----------------------+-----------------------+---------------------+

 ======================================================================
 OUTER LOOP ITERATION =  156 (    2) CPU SECONDS = 1.703E+02 (4.050E+00)
 ----------------------------------------------------------------------
 |       Equation       | Rate | RMS Res | Max Res |  Linear Solution |
 +----------------------+------+---------+---------+------------------+
 | U-Mom                | 0.54 | 1.6E-03 | 3.1E-02 |       9.2E-02  OK|
 | V-Mom                | 0.50 | 1.6E-03 | 3.7E-02 |       9.1E-02  OK|
 | W-Mom                | 0.49 | 8.6E-04 | 2.1E-02 |       1.2E-01  ok|
 | P-Mass               | 0.36 | 4.5E-04 | 7.5E-03 |  9.4  4.3E-02  OK|
 +----------------------+------+---------+---------+------------------+
 | H-Energy             | 0.27 | 1.2E-03 | 3.8E-02 |  5.4  6.5E-02  OK|
 +----------------------+------+---------+---------+------------------+
 | K-TurbKE             | 3.93 | 1.8E-02 | 1.7E-01 |  5.4  2.7E-02  OK|
 | E-Diss.K             | 1.65 | 5.8E-02 | 1.5E+00 |  7.2  2.4E-03  OK|
 +----------------------+------+---------+---------+------------------+

 ======================================================================
 OUTER LOOP ITERATION =  157 (    3) CPU SECONDS = 1.714E+02 (5.177E+00)
 ----------------------------------------------------------------------
 |       Equation       | Rate | RMS Res | Max Res |  Linear Solution |
 +----------------------+------+---------+---------+------------------+
 | U-Mom                | 0.63 | 1.0E-03 | 2.7E-02 |       9.4E-02  OK|
 | V-Mom                | 0.57 | 9.2E-04 | 2.4E-02 |       9.6E-02  OK|
 | W-Mom                | 0.58 | 5.0E-04 | 1.2E-02 |       1.0E-01  ok|
 | P-Mass               | 0.52 | 2.4E-04 | 4.8E-03 |  9.4  5.4E-02  OK|
 +----------------------+------+---------+---------+------------------+
 | H-Energy             | 0.73 | 9.0E-04 | 2.6E-02 |  5.4  4.3E-02  OK|
 +----------------------+------+---------+---------+------------------+
 | K-TurbKE             | 0.47 | 8.4E-03 | 7.9E-02 |  5.4  3.7E-02  OK|
 | E-Diss.K             | 0.25 | 1.5E-02 | 2.4E-01 |  7.2  1.7E-02  OK|
 +----------------------+------+---------+---------+------------------+

 ======================================================================
 OUTER LOOP ITERATION =  158 (    4) CPU SECONDS = 1.724E+02 (6.224E+00)
 ----------------------------------------------------------------------
 |       Equation       | Rate | RMS Res | Max Res |  Linear Solution |
 +----------------------+------+---------+---------+------------------+
 | U-Mom                | 0.60 | 6.1E-04 | 2.4E-02 |       6.8E-02  OK|
 | V-Mom                | 0.55 | 5.1E-04 | 1.4E-02 |       7.0E-02  OK|
 | W-Mom                | 0.71 | 3.6E-04 | 9.4E-03 |       8.8E-02  OK|
 | P-Mass               | 0.63 | 1.5E-04 | 3.2E-03 |  9.4  4.8E-02  OK|
 +----------------------+------+---------+---------+------------------+
 | H-Energy             | 0.89 | 8.0E-04 | 2.5E-02 |  5.4  5.1E-02  OK|
 +----------------------+------+---------+---------+------------------+
 | K-TurbKE             | 0.71 | 5.9E-03 | 6.3E-02 |  5.4  4.1E-02  OK|
 | E-Diss.K             | 0.28 | 4.1E-03 | 9.8E-02 |  7.2  9.2E-03  OK|
 +----------------------+------+---------+---------+------------------+

 ======================================================================
 OUTER LOOP ITERATION =  159 (    5) CPU SECONDS = 1.735E+02 (7.262E+00)
 ----------------------------------------------------------------------
 |       Equation       | Rate | RMS Res | Max Res |  Linear Solution |
 +----------------------+------+---------+---------+------------------+
 | U-Mom                | 0.83 | 5.1E-04 | 1.9E-02 |       4.3E-02  OK|
 | V-Mom                | 0.87 | 4.5E-04 | 1.1E-02 |       4.4E-02  OK|
 | W-Mom                | 0.72 | 2.6E-04 | 6.8E-03 |       9.1E-02  OK|
 | P-Mass               | 0.63 | 9.4E-05 | 2.0E-03 |  9.4  4.5E-02  OK|
 +----------------------+------+---------+---------+------------------+
 | H-Energy             | 0.88 | 7.0E-04 | 2.2E-02 |  5.4  5.7E-02  OK|
 +----------------------+------+---------+---------+------------------+
 | K-TurbKE             | 0.32 | 1.9E-03 | 2.2E-02 |  5.4  3.1E-02  OK|
 | E-Diss.K             | 2.11 | 8.5E-03 | 2.2E-01 |  7.2  5.2E-03  OK|
 +----------------------+------+---------+---------+------------------+

 ======================================================================
 OUTER LOOP ITERATION =  160 (    6) CPU SECONDS = 1.745E+02 (8.281E+00)
 ----------------------------------------------------------------------
 |       Equation       | Rate | RMS Res | Max Res |  Linear Solution |
 +----------------------+------+---------+---------+------------------+
 | U-Mom                | 0.69 | 3.6E-04 | 1.3E-02 |       5.0E-02  OK|
 | V-Mom                | 0.75 | 3.4E-04 | 6.8E-03 |       5.0E-02  OK|
 | W-Mom                | 0.82 | 2.1E-04 | 4.7E-03 |       5.3E-02  OK|
 | P-Mass               | 0.57 | 5.4E-05 | 1.2E-03 |  9.4  5.2E-02  OK|
 +----------------------+------+---------+---------+------------------+
 | H-Energy             | 0.88 | 6.2E-04 | 1.1E-02 |  5.4  5.7E-02  OK|
 +----------------------+------+---------+---------+------------------+
 | K-TurbKE             | 0.70 | 1.3E-03 | 8.9E-03 |  5.4  2.9E-02  OK|
 | E-Diss.K             | 0.41 | 3.5E-03 | 4.6E-02 |  7.2  7.0E-03  OK|
 +----------------------+------+---------+---------+------------------+

 ======================================================================
 |                        Timescale Information                       |
 ----------------------------------------------------------------------
 |       Equation       |         Type          |      Timescale      |
 +----------------------+-----------------------+---------------------+
 | U-Mom                | Auto Timescale        |     2.10589E-01     |
 | V-Mom                | Auto Timescale        |     2.10589E-01     |
 | W-Mom                | Auto Timescale        |     2.10589E-01     |
 +----------------------+-----------------------+---------------------+
 | H-Energy             | Auto Timescale        |     2.10589E-01     |
 +----------------------+-----------------------+---------------------+
 | K-TurbKE             | Auto Timescale        |     2.10589E-01     |
 | E-Diss.K             | Auto Timescale        |     2.10589E-01     |
 +----------------------+-----------------------+---------------------+

 ======================================================================
 OUTER LOOP ITERATION =  161 (    7) CPU SECONDS = 1.755E+02 (9.292E+00)
 ----------------------------------------------------------------------
 |       Equation       | Rate | RMS Res | Max Res |  Linear Solution |
 +----------------------+------+---------+---------+------------------+
 | U-Mom                | 0.80 | 2.8E-04 | 8.1E-03 |       8.0E-02  OK|
 | V-Mom                | 0.93 | 3.1E-04 | 7.0E-03 |       7.7E-02  OK|
 | W-Mom                | 0.90 | 1.9E-04 | 4.3E-03 |       6.0E-02  OK|
 | P-Mass               | 0.80 | 4.3E-05 | 9.2E-04 |  9.4  8.6E-02  OK|
 +----------------------+------+---------+---------+------------------+
 | H-Energy             | 0.90 | 5.6E-04 | 6.0E-03 |  5.4  5.7E-02  OK|
 +----------------------+------+---------+---------+------------------+
 | K-TurbKE             | 0.64 | 8.4E-04 | 1.2E-02 |  5.4  4.4E-02  OK|
 | E-Diss.K             | 0.59 | 2.0E-03 | 5.9E-02 |  7.2  6.1E-03  OK|
 +----------------------+------+---------+---------+------------------+

 ======================================================================
 OUTER LOOP ITERATION =  162 (    8) CPU SECONDS = 1.765E+02 (1.031E+01)
 ----------------------------------------------------------------------
 |       Equation       | Rate | RMS Res | Max Res |  Linear Solution |
 +----------------------+------+---------+---------+------------------+
 | U-Mom                | 0.84 | 2.4E-04 | 5.0E-03 |       8.9E-02  OK|
 | V-Mom                | 0.95 | 3.0E-04 | 7.4E-03 |       8.4E-02  OK|
 | W-Mom                | 0.93 | 1.8E-04 | 4.0E-03 |       8.4E-02  OK|
 | P-Mass               | 1.12 | 4.8E-05 | 8.2E-04 |  9.4  9.9E-02  OK|
 +----------------------+------+---------+---------+------------------+
 | H-Energy             | 0.88 | 4.9E-04 | 4.9E-03 |  5.4  5.6E-02  OK|
 +----------------------+------+---------+---------+------------------+
 | K-TurbKE             | 0.63 | 5.3E-04 | 8.2E-03 |  5.4  6.0E-02  OK|
 | E-Diss.K             | 0.28 | 5.6E-04 | 1.2E-02 |  7.2  9.6E-03  OK|
 +----------------------+------+---------+---------+------------------+

 ======================================================================
 OUTER LOOP ITERATION =  163 (    9) CPU SECONDS = 1.776E+02 (1.134E+01)
 ----------------------------------------------------------------------
 |       Equation       | Rate | RMS Res | Max Res |  Linear Solution |
 +----------------------+------+---------+---------+------------------+
 | U-Mom                | 0.87 | 2.1E-04 | 5.1E-03 |       3.5E-02  OK|
 | V-Mom                | 0.94 | 2.8E-04 | 7.4E-03 |       3.3E-02  OK|
 | W-Mom                | 0.95 | 1.7E-04 | 3.7E-03 |       6.0E-02  OK|
 | P-Mass               | 1.05 | 5.1E-05 | 6.8E-04 | 13.5  4.2E-02  OK|
 +----------------------+------+---------+---------+------------------+
 | H-Energy             | 0.89 | 4.3E-04 | 4.5E-03 |  5.4  5.6E-02  OK|
 +----------------------+------+---------+---------+------------------+
 | K-TurbKE             | 0.84 | 4.4E-04 | 7.5E-03 |  5.4  6.9E-02  OK|
 | E-Diss.K             | 0.73 | 4.1E-04 | 1.3E-02 |  7.2  1.6E-02  OK|
 +----------------------+------+---------+---------+------------------+

 ======================================================================
 OUTER LOOP ITERATION =  164 (   10) CPU SECONDS = 1.786E+02 (1.242E+01)
 ----------------------------------------------------------------------
 |       Equation       | Rate | RMS Res | Max Res |  Linear Solution |
 +----------------------+------+---------+---------+------------------+
 | U-Mom                | 0.90 | 1.9E-04 | 5.3E-03 |       3.4E-02  OK|
 | V-Mom                | 0.93 | 2.6E-04 | 7.1E-03 |       3.2E-02  OK|
 | W-Mom                | 0.95 | 1.6E-04 | 3.5E-03 |       5.9E-02  OK|
 | P-Mass               | 1.10 | 5.6E-05 | 6.7E-04 | 13.5  3.8E-02  OK|
 +----------------------+------+---------+---------+------------------+
 | H-Energy             | 0.89 | 3.9E-04 | 4.3E-03 |  5.4  5.6E-02  OK|
 +----------------------+------+---------+---------+------------------+
 | K-TurbKE             | 0.97 | 4.3E-04 | 7.2E-03 |  5.4  6.9E-02  OK|
 | E-Diss.K             | 2.46 | 1.0E-03 | 2.9E-02 |  7.2  9.2E-03  OK|
 +----------------------+------+---------+---------+------------------+

 ======================================================================
 OUTER LOOP ITERATION =  165 (   11) CPU SECONDS = 1.797E+02 (1.349E+01)
 ----------------------------------------------------------------------
 |       Equation       | Rate | RMS Res | Max Res |  Linear Solution |
 +----------------------+------+---------+---------+------------------+
 | U-Mom                | 0.94 | 1.8E-04 | 5.7E-03 |       3.3E-02  OK|
 | V-Mom                | 0.93 | 2.4E-04 | 6.8E-03 |       3.1E-02  OK|
 | W-Mom                | 0.94 | 1.5E-04 | 3.3E-03 |       6.3E-02  OK|
 | P-Mass               | 0.96 | 5.3E-05 | 6.4E-04 | 13.5  3.9E-02  OK|
 +----------------------+------+---------+---------+------------------+
 | H-Energy             | 0.89 | 3.4E-04 | 3.3E-03 |  5.4  5.6E-02  OK|
 +----------------------+------+---------+---------+------------------+
 | K-TurbKE             | 0.97 | 4.1E-04 | 6.4E-03 |  5.4  6.6E-02  OK|
 | E-Diss.K             | 0.98 | 9.8E-04 | 2.5E-02 |  7.2  1.0E-02  OK|
 +----------------------+------+---------+---------+------------------+

 ======================================================================
 |                        Timescale Information                       |
 ----------------------------------------------------------------------
 |       Equation       |         Type          |      Timescale      |
 +----------------------+-----------------------+---------------------+
 | U-Mom                | Auto Timescale        |     2.07058E-01     |
 | V-Mom                | Auto Timescale        |     2.07058E-01     |
 | W-Mom                | Auto Timescale        |     2.07058E-01     |
 +----------------------+-----------------------+---------------------+
 | H-Energy             | Auto Timescale        |     2.07058E-01     |
 +----------------------+-----------------------+---------------------+
 | K-TurbKE             | Auto Timescale        |     2.07058E-01     |
 | E-Diss.K             | Auto Timescale        |     2.07058E-01     |
 +----------------------+-----------------------+---------------------+

 ======================================================================
 OUTER LOOP ITERATION =  166 (   12) CPU SECONDS = 1.808E+02 (1.456E+01)
 ----------------------------------------------------------------------
 |       Equation       | Rate | RMS Res | Max Res |  Linear Solution |
 +----------------------+------+---------+---------+------------------+
 | U-Mom                | 0.96 | 1.7E-04 | 6.1E-03 |       3.2E-02  OK|
 | V-Mom                | 0.93 | 2.3E-04 | 6.5E-03 |       3.0E-02  OK|
 | W-Mom                | 0.93 | 1.4E-04 | 3.1E-03 |       6.5E-02  OK|
 | P-Mass               | 0.94 | 5.1E-05 | 5.9E-04 | 13.5  4.0E-02  OK|
 +----------------------+------+---------+---------+------------------+
 | H-Energy             | 0.89 | 3.1E-04 | 3.0E-03 |  5.4  5.5E-02  OK|
 +----------------------+------+---------+---------+------------------+
 | K-TurbKE             | 0.98 | 4.0E-04 | 4.9E-03 |  5.4  6.1E-02  OK|
 | E-Diss.K             | 0.87 | 8.6E-04 | 2.1E-02 |  7.2  1.2E-02  OK|
 +----------------------+------+---------+---------+------------------+

 ======================================================================
 OUTER LOOP ITERATION =  167 (   13) CPU SECONDS = 1.818E+02 (1.562E+01)
 ----------------------------------------------------------------------
 |       Equation       | Rate | RMS Res | Max Res |  Linear Solution |
 +----------------------+------+---------+---------+------------------+
 | U-Mom                | 0.96 | 1.6E-04 | 6.0E-03 |       3.2E-02  OK|
 | V-Mom                | 0.93 | 2.1E-04 | 6.3E-03 |       3.0E-02  OK|
 | W-Mom                | 0.92 | 1.3E-04 | 2.9E-03 |       6.8E-02  OK|
 | P-Mass               | 0.94 | 4.7E-05 | 5.4E-04 | 13.5  4.0E-02  OK|
 +----------------------+------+---------+---------+------------------+
 | H-Energy             | 0.90 | 2.8E-04 | 2.5E-03 |  5.4  5.4E-02  OK|
 +----------------------+------+---------+---------+------------------+
 | K-TurbKE             | 1.00 | 4.0E-04 | 4.4E-03 |  5.4  5.8E-02  OK|
 | E-Diss.K             | 1.00 | 8.6E-04 | 2.1E-02 |  7.2  1.2E-02  OK|
 +----------------------+------+---------+---------+------------------+

 ======================================================================
 OUTER LOOP ITERATION =  168 (   14) CPU SECONDS = 1.829E+02 (1.668E+01)
 ----------------------------------------------------------------------
 |       Equation       | Rate | RMS Res | Max Res |  Linear Solution |
 +----------------------+------+---------+---------+------------------+
 | U-Mom                | 0.96 | 1.6E-04 | 5.4E-03 |       3.2E-02  OK|
 | V-Mom                | 0.93 | 2.0E-04 | 6.1E-03 |       3.0E-02  OK|
 | W-Mom                | 0.91 | 1.2E-04 | 2.8E-03 |       7.2E-02  OK|
 | P-Mass               | 0.94 | 4.4E-05 | 4.8E-04 | 13.5  4.1E-02  OK|
 +----------------------+------+---------+---------+------------------+
 | H-Energy             | 0.90 | 2.5E-04 | 2.6E-03 |  5.4  5.4E-02  OK|
 +----------------------+------+---------+---------+------------------+
 | K-TurbKE             | 1.00 | 4.0E-04 | 3.4E-03 |  5.4  5.6E-02  OK|
 | E-Diss.K             | 0.96 | 8.3E-04 | 2.0E-02 |  7.2  1.2E-02  OK|
 +----------------------+------+---------+---------+------------------+

 ======================================================================
 OUTER LOOP ITERATION =  169 (   15) CPU SECONDS = 1.840E+02 (1.775E+01)
 ----------------------------------------------------------------------
 |       Equation       | Rate | RMS Res | Max Res |  Linear Solution |
 +----------------------+------+---------+---------+------------------+
 | U-Mom                | 0.96 | 1.5E-04 | 5.1E-03 |       3.2E-02  OK|
 | V-Mom                | 0.93 | 1.8E-04 | 5.9E-03 |       3.0E-02  OK|
 | W-Mom                | 0.90 | 1.1E-04 | 2.8E-03 |       7.7E-02  OK|
 | P-Mass               | 0.94 | 4.1E-05 | 4.4E-04 | 13.5  4.1E-02  OK|
 +----------------------+------+---------+---------+------------------+
 | H-Energy             | 0.91 | 2.3E-04 | 2.5E-03 |  5.4  5.4E-02  OK|
 +----------------------+------+---------+---------+------------------+
 | K-TurbKE             | 1.00 | 4.0E-04 | 3.0E-03 |  5.4  5.5E-02  OK|
 | E-Diss.K             | 0.93 | 7.7E-04 | 1.7E-02 |  7.2  1.3E-02  OK|
 +----------------------+------+---------+---------+------------------+

 ======================================================================
 OUTER LOOP ITERATION =  170 (   16) CPU SECONDS = 1.850E+02 (1.881E+01)
 ----------------------------------------------------------------------
 |       Equation       | Rate | RMS Res | Max Res |  Linear Solution |
 +----------------------+------+---------+---------+------------------+
 | U-Mom                | 0.96 | 1.4E-04 | 5.6E-03 |       3.2E-02  OK|
 | V-Mom                | 0.94 | 1.7E-04 | 5.5E-03 |       3.0E-02  OK|
 | W-Mom                | 0.90 | 9.6E-05 | 2.8E-03 |       8.3E-02  OK|
 | P-Mass               | 0.94 | 3.9E-05 | 3.9E-04 | 13.5  4.2E-02  OK|
 +----------------------+------+---------+---------+------------------+
 | H-Energy             | 0.91 | 2.1E-04 | 2.4E-03 |  5.4  5.5E-02  OK|
 +----------------------+------+---------+---------+------------------+
 | K-TurbKE             | 1.00 | 4.0E-04 | 2.1E-03 |  5.4  5.4E-02  OK|
 | E-Diss.K             | 0.94 | 7.2E-04 | 1.6E-02 |  7.2  1.4E-02  OK|
 +----------------------+------+---------+---------+------------------+

 ======================================================================
 |                        Timescale Information                       |
 ----------------------------------------------------------------------
 |       Equation       |         Type          |      Timescale      |
 +----------------------+-----------------------+---------------------+
 | U-Mom                | Auto Timescale        |     2.02289E-01     |
 | V-Mom                | Auto Timescale        |     2.02289E-01     |
 | W-Mom                | Auto Timescale        |     2.02289E-01     |
 +----------------------+-----------------------+---------------------+
 | H-Energy             | Auto Timescale        |     2.02289E-01     |
 +----------------------+-----------------------+---------------------+
 | K-TurbKE             | Auto Timescale        |     2.02289E-01     |
 | E-Diss.K             | Auto Timescale        |     2.02289E-01     |
 +----------------------+-----------------------+---------------------+

 ======================================================================
 OUTER LOOP ITERATION =  171 (   17) CPU SECONDS = 1.861E+02 (1.990E+01)
 ----------------------------------------------------------------------
 |       Equation       | Rate | RMS Res | Max Res |  Linear Solution |
 +----------------------+------+---------+---------+------------------+
 | U-Mom                | 0.96 | 1.4E-04 | 6.0E-03 |       3.1E-02  OK|
 | V-Mom                | 0.94 | 1.6E-04 | 5.0E-03 |       3.0E-02  OK|
 | W-Mom                | 0.90 | 8.7E-05 | 2.8E-03 |       8.8E-02  OK|
 | P-Mass               | 0.94 | 3.7E-05 | 3.6E-04 | 13.5  4.2E-02  OK|
 +----------------------+------+---------+---------+------------------+
 | H-Energy             | 0.92 | 1.9E-04 | 2.2E-03 |  5.4  5.4E-02  OK|
 +----------------------+------+---------+---------+------------------+
 | K-TurbKE             | 0.99 | 4.0E-04 | 2.0E-03 |  5.4  5.2E-02  OK|
 | E-Diss.K             | 0.94 | 6.7E-04 | 1.4E-02 |  7.2  1.4E-02  OK|
 +----------------------+------+---------+---------+------------------+

 ======================================================================
 OUTER LOOP ITERATION =  172 (   18) CPU SECONDS = 1.872E+02 (2.095E+01)
 ----------------------------------------------------------------------
 |       Equation       | Rate | RMS Res | Max Res |  Linear Solution |
 +----------------------+------+---------+---------+------------------+
 | U-Mom                | 0.97 | 1.3E-04 | 6.3E-03 |       3.1E-02  OK|
 | V-Mom                | 0.95 | 1.5E-04 | 5.1E-03 |       3.0E-02  OK|
 | W-Mom                | 0.91 | 7.9E-05 | 2.7E-03 |       9.4E-02  OK|
 | P-Mass               | 0.94 | 3.5E-05 | 3.2E-04 | 13.5  4.2E-02  OK|
 +----------------------+------+---------+---------+------------------+
 | H-Energy             | 0.93 | 1.8E-04 | 2.1E-03 |  5.4  5.7E-02  OK|
 +----------------------+------+---------+---------+------------------+
 | K-TurbKE             | 0.99 | 3.9E-04 | 2.0E-03 |  5.4  5.2E-02  OK|
 | E-Diss.K             | 0.95 | 6.4E-04 | 1.3E-02 |  7.2  1.4E-02  OK|
 +----------------------+------+---------+---------+------------------+

 ======================================================================
 OUTER LOOP ITERATION =  173 (   19) CPU SECONDS = 1.882E+02 (2.202E+01)
 ----------------------------------------------------------------------
 |       Equation       | Rate | RMS Res | Max Res |  Linear Solution |
 +----------------------+------+---------+---------+------------------+
 | U-Mom                | 0.97 | 1.3E-04 | 6.4E-03 |       3.1E-02  OK|
 | V-Mom                | 0.95 | 1.4E-04 | 5.3E-03 |       3.1E-02  OK|
 | W-Mom                | 0.91 | 7.2E-05 | 2.6E-03 |       1.0E-01  OK|
 | P-Mass               | 0.95 | 3.3E-05 | 2.9E-04 | 13.5  4.3E-02  OK|
 +----------------------+------+---------+---------+------------------+
 | H-Energy             | 0.94 | 1.7E-04 | 2.0E-03 |  5.4  6.0E-02  OK|
 +----------------------+------+---------+---------+------------------+
 | K-TurbKE             | 0.98 | 3.9E-04 | 2.0E-03 |  5.4  5.2E-02  OK|
 | E-Diss.K             | 0.96 | 6.1E-04 | 1.2E-02 |  7.2  1.4E-02  OK|
 +----------------------+------+---------+---------+------------------+

 ======================================================================
 OUTER LOOP ITERATION =  174 (   20) CPU SECONDS = 1.893E+02 (2.308E+01)
 ----------------------------------------------------------------------
 |       Equation       | Rate | RMS Res | Max Res |  Linear Solution |
 +----------------------+------+---------+---------+------------------+
 | U-Mom                | 0.97 | 1.3E-04 | 6.5E-03 |       3.1E-02  OK|
 | V-Mom                | 0.96 | 1.4E-04 | 5.4E-03 |       3.1E-02  OK|
 | W-Mom                | 0.92 | 6.6E-05 | 2.5E-03 |       1.1E-01  ok|
 | P-Mass               | 0.95 | 3.1E-05 | 2.7E-04 | 13.5  4.4E-02  OK|
 +----------------------+------+---------+---------+------------------+
 | H-Energy             | 0.95 | 1.6E-04 | 1.8E-03 |  5.4  6.3E-02  OK|
 +----------------------+------+---------+---------+------------------+
 | K-TurbKE             | 0.98 | 3.8E-04 | 2.0E-03 |  5.4  5.2E-02  OK|
 | E-Diss.K             | 0.96 | 5.9E-04 | 1.1E-02 |  7.2  1.5E-02  OK|
 +----------------------+------+---------+---------+------------------+

 ======================================================================
 OUTER LOOP ITERATION =  175 (   21) CPU SECONDS = 1.904E+02 (2.413E+01)
 ----------------------------------------------------------------------
 |       Equation       | Rate | RMS Res | Max Res |  Linear Solution |
 +----------------------+------+---------+---------+------------------+
 | U-Mom                | 0.97 | 1.2E-04 | 6.5E-03 |       3.1E-02  OK|
 | V-Mom                | 0.96 | 1.3E-04 | 5.5E-03 |       3.1E-02  OK|
 | W-Mom                | 0.93 | 6.2E-05 | 2.4E-03 |       1.1E-01  ok|
 | P-Mass               | 0.96 | 3.0E-05 | 2.5E-04 | 13.5  4.5E-02  OK|
 +----------------------+------+---------+---------+------------------+
 | H-Energy             | 0.95 | 1.5E-04 | 1.7E-03 |  5.4  6.6E-02  OK|
 +----------------------+------+---------+---------+------------------+
 | K-TurbKE             | 0.98 | 3.7E-04 | 2.0E-03 |  5.4  5.2E-02  OK|
 | E-Diss.K             | 0.96 | 5.6E-04 | 1.1E-02 |  7.2  1.5E-02  OK|
 +----------------------+------+---------+---------+------------------+

 ======================================================================
 |                        Timescale Information                       |
 ----------------------------------------------------------------------
 |       Equation       |         Type          |      Timescale      |
 +----------------------+-----------------------+---------------------+
 | U-Mom                | Auto Timescale        |     1.97710E-01     |
 | V-Mom                | Auto Timescale        |     1.97710E-01     |
 | W-Mom                | Auto Timescale        |     1.97710E-01     |
 +----------------------+-----------------------+---------------------+
 | H-Energy             | Auto Timescale        |     1.97710E-01     |
 +----------------------+-----------------------+---------------------+
 | K-TurbKE             | Auto Timescale        |     1.97710E-01     |
 | E-Diss.K             | Auto Timescale        |     1.97710E-01     |
 +----------------------+-----------------------+---------------------+

 ======================================================================
 OUTER LOOP ITERATION =  176 (   22) CPU SECONDS = 1.914E+02 (2.517E+01)
 ----------------------------------------------------------------------
 |       Equation       | Rate | RMS Res | Max Res |  Linear Solution |
 +----------------------+------+---------+---------+------------------+
 | U-Mom                | 0.97 | 1.2E-04 | 6.4E-03 |       3.1E-02  OK|
 | V-Mom                | 0.97 | 1.3E-04 | 5.6E-03 |       3.1E-02  OK|
 | W-Mom                | 0.95 | 5.8E-05 | 2.3E-03 |       1.1E-01  ok|
 | P-Mass               | 0.96 | 2.9E-05 | 2.5E-04 | 13.5  4.5E-02  OK|
 +----------------------+------+---------+---------+------------------+
 | H-Energy             | 0.95 | 1.4E-04 | 1.6E-03 |  5.4  6.6E-02  OK|
 +----------------------+------+---------+---------+------------------+
 | K-TurbKE             | 0.97 | 3.6E-04 | 1.9E-03 |  5.4  5.0E-02  OK|
 | E-Diss.K             | 0.94 | 5.3E-04 | 1.0E-02 |  7.2  1.5E-02  OK|
 +----------------------+------+---------+---------+------------------+

 ======================================================================
 OUTER LOOP ITERATION =  177 (   23) CPU SECONDS = 1.924E+02 (2.622E+01)
 ----------------------------------------------------------------------
 |       Equation       | Rate | RMS Res | Max Res |  Linear Solution |
 +----------------------+------+---------+---------+------------------+
 | U-Mom                | 0.97 | 1.2E-04 | 6.1E-03 |       3.1E-02  OK|
 | V-Mom                | 0.97 | 1.2E-04 | 5.6E-03 |       3.1E-02  OK|
 | W-Mom                | 0.96 | 5.6E-05 | 2.3E-03 |       1.2E-01  ok|
 | P-Mass               | 0.95 | 2.7E-05 | 2.6E-04 | 13.5  4.5E-02  OK|
 +----------------------+------+---------+---------+------------------+
 | H-Energy             | 0.95 | 1.3E-04 | 1.6E-03 |  5.4  6.8E-02  OK|
 +----------------------+------+---------+---------+------------------+
 | K-TurbKE             | 0.97 | 3.5E-04 | 1.9E-03 |  5.4  5.0E-02  OK|
 | E-Diss.K             | 0.95 | 5.0E-04 | 9.5E-03 |  7.2  1.5E-02  OK|
 +----------------------+------+---------+---------+------------------+

 ======================================================================
 OUTER LOOP ITERATION =  178 (   24) CPU SECONDS = 1.935E+02 (2.727E+01)
 ----------------------------------------------------------------------
 |       Equation       | Rate | RMS Res | Max Res |  Linear Solution |
 +----------------------+------+---------+---------+------------------+
 | U-Mom                | 0.97 | 1.1E-04 | 6.0E-03 |       3.0E-02  OK|
 | V-Mom                | 0.97 | 1.2E-04 | 5.7E-03 |       3.1E-02  OK|
 | W-Mom                | 0.97 | 5.4E-05 | 2.3E-03 |       1.2E-01  ok|
 | P-Mass               | 0.95 | 2.6E-05 | 2.6E-04 | 13.5  4.6E-02  OK|
 +----------------------+------+---------+---------+------------------+
 | H-Energy             | 0.94 | 1.3E-04 | 1.5E-03 |  5.4  6.9E-02  OK|
 +----------------------+------+---------+---------+------------------+
 | K-TurbKE             | 0.96 | 3.3E-04 | 1.8E-03 |  5.4  5.1E-02  OK|
 | E-Diss.K             | 0.95 | 4.8E-04 | 9.0E-03 |  7.2  1.5E-02  OK|
 +----------------------+------+---------+---------+------------------+

 ======================================================================
 OUTER LOOP ITERATION =  179 (   25) CPU SECONDS = 1.946E+02 (2.835E+01)
 ----------------------------------------------------------------------
 |       Equation       | Rate | RMS Res | Max Res |  Linear Solution |
 +----------------------+------+---------+---------+------------------+
 | U-Mom                | 0.98 | 1.1E-04 | 5.9E-03 |       3.0E-02  OK|
 | V-Mom                | 0.97 | 1.2E-04 | 5.7E-03 |       3.1E-02  OK|
 | W-Mom                | 0.97 | 5.3E-05 | 2.2E-03 |       1.2E-01  ok|
 | P-Mass               | 0.96 | 2.5E-05 | 2.7E-04 | 13.5  4.7E-02  OK|
 +----------------------+------+---------+---------+------------------+
 | H-Energy             | 0.94 | 1.2E-04 | 1.5E-03 |  5.4  6.9E-02  OK|
 +----------------------+------+---------+---------+------------------+
 | K-TurbKE             | 0.96 | 3.2E-04 | 1.7E-03 |  5.4  5.0E-02  OK|
 | E-Diss.K             | 0.95 | 4.5E-04 | 8.4E-03 |  7.2  1.5E-02  OK|
 +----------------------+------+---------+---------+------------------+

 ======================================================================
 OUTER LOOP ITERATION =  180 (   26) CPU SECONDS = 1.956E+02 (2.941E+01)
 ----------------------------------------------------------------------
 |       Equation       | Rate | RMS Res | Max Res |  Linear Solution |
 +----------------------+------+---------+---------+------------------+
 | U-Mom                | 0.98 | 1.1E-04 | 5.9E-03 |       3.0E-02  OK|
 | V-Mom                | 0.97 | 1.1E-04 | 5.8E-03 |       3.1E-02  OK|
 | W-Mom                | 0.98 | 5.2E-05 | 2.2E-03 |       1.3E-01  ok|
 | P-Mass               | 0.96 | 2.4E-05 | 2.7E-04 | 13.5  4.7E-02  OK|
 +----------------------+------+---------+---------+------------------+
 | H-Energy             | 0.95 | 1.1E-04 | 1.4E-03 |  5.4  6.8E-02  OK|
 +----------------------+------+---------+---------+------------------+
 | K-TurbKE             | 0.96 | 3.1E-04 | 1.6E-03 |  5.4  5.1E-02  OK|
 | E-Diss.K             | 0.95 | 4.3E-04 | 7.9E-03 |  7.2  1.6E-02  OK|
 +----------------------+------+---------+---------+------------------+

 ======================================================================
 |                        Timescale Information                       |
 ----------------------------------------------------------------------
 |       Equation       |         Type          |      Timescale      |
 +----------------------+-----------------------+---------------------+
 | U-Mom                | Auto Timescale        |     1.93555E-01     |
 | V-Mom                | Auto Timescale        |     1.93555E-01     |
 | W-Mom                | Auto Timescale        |     1.93555E-01     |
 +----------------------+-----------------------+---------------------+
 | H-Energy             | Auto Timescale        |     1.93555E-01     |
 +----------------------+-----------------------+---------------------+
 | K-TurbKE             | Auto Timescale        |     1.93555E-01     |
 | E-Diss.K             | Auto Timescale        |     1.93555E-01     |
 +----------------------+-----------------------+---------------------+

 ======================================================================
 OUTER LOOP ITERATION =  181 (   27) CPU SECONDS = 1.967E+02 (3.045E+01)
 ----------------------------------------------------------------------
 |       Equation       | Rate | RMS Res | Max Res |  Linear Solution |
 +----------------------+------+---------+---------+------------------+
 | U-Mom                | 0.98 | 1.1E-04 | 5.9E-03 |       2.9E-02  OK|
 | V-Mom                | 0.98 | 1.1E-04 | 6.0E-03 |       3.0E-02  OK|
 | W-Mom                | 0.98 | 5.1E-05 | 2.2E-03 |       1.3E-01  ok|
 | P-Mass               | 0.97 | 2.3E-05 | 2.7E-04 | 13.5  4.7E-02  OK|
 +----------------------+------+---------+---------+------------------+
 | H-Energy             | 0.96 | 1.1E-04 | 1.4E-03 |  5.4  6.6E-02  OK|
 +----------------------+------+---------+---------+------------------+
 | K-TurbKE             | 0.95 | 2.9E-04 | 1.5E-03 |  5.4  4.9E-02  OK|
 | E-Diss.K             | 0.94 | 4.0E-04 | 7.3E-03 |  7.2  1.6E-02  OK|
 +----------------------+------+---------+---------+------------------+

 ======================================================================
 OUTER LOOP ITERATION =  182 (   28) CPU SECONDS = 1.977E+02 (3.150E+01)
 ----------------------------------------------------------------------
 |       Equation       | Rate | RMS Res | Max Res |  Linear Solution |
 +----------------------+------+---------+---------+------------------+
 | U-Mom                | 0.98 | 1.0E-04 | 6.0E-03 |       2.9E-02  OK|
 | V-Mom                | 0.98 | 1.1E-04 | 6.1E-03 |       3.0E-02  OK|
 | W-Mom                | 0.98 | 5.0E-05 | 2.1E-03 |       1.3E-01  ok|
 | P-Mass               | 0.96 | 2.2E-05 | 2.6E-04 | 13.5  4.7E-02  OK|
 +----------------------+------+---------+---------+------------------+
 | H-Energy             | 0.97 | 1.0E-04 | 1.3E-03 |  5.4  6.5E-02  OK|
 +----------------------+------+---------+---------+------------------+
 | K-TurbKE             | 0.95 | 2.8E-04 | 1.5E-03 |  5.4  4.9E-02  OK|
 | E-Diss.K             | 0.95 | 3.8E-04 | 6.8E-03 |  7.2  1.6E-02  OK|
 +----------------------+------+---------+---------+------------------+

 ======================================================================
 OUTER LOOP ITERATION =  183 (   29) CPU SECONDS = 1.988E+02 (3.254E+01)
 ----------------------------------------------------------------------
 |       Equation       | Rate | RMS Res | Max Res |  Linear Solution |
 +----------------------+------+---------+---------+------------------+
 | U-Mom                | 0.99 | 1.0E-04 | 6.2E-03 |       2.9E-02  OK|
 | V-Mom                | 0.98 | 1.1E-04 | 6.3E-03 |       3.0E-02  OK|
 | W-Mom                | 0.98 | 4.9E-05 | 2.1E-03 |       1.3E-01  ok|
 | P-Mass               | 0.97 | 2.2E-05 | 2.6E-04 | 13.5  4.8E-02  OK|
 +----------------------+------+---------+---------+------------------+
 | H-Energy             | 0.98 | 1.0E-04 | 1.3E-03 |  5.4  6.5E-02  OK|
 +----------------------+------+---------+---------+------------------+
 | K-TurbKE             | 0.95 | 2.6E-04 | 2.0E-03 |  5.4  5.0E-02  OK|
 | E-Diss.K             | 0.95 | 3.6E-04 | 6.3E-03 |  7.2  1.6E-02  OK|
 +----------------------+------+---------+---------+------------------+

 ======================================================================
 OUTER LOOP ITERATION =  184 (   30) CPU SECONDS = 1.998E+02 (3.359E+01)
 ----------------------------------------------------------------------
 |       Equation       | Rate | RMS Res | Max Res |  Linear Solution |
 +----------------------+------+---------+---------+------------------+
 | U-Mom                | 0.99 | 1.0E-04 | 6.3E-03 |       2.9E-02  OK|
 | V-Mom                | 0.98 | 1.0E-04 | 6.5E-03 |       3.0E-02  OK|
 | W-Mom                | 0.98 | 4.8E-05 | 2.3E-03 |       1.3E-01  ok|
 | P-Mass               | 0.97 | 2.1E-05 | 2.6E-04 | 13.5  4.8E-02  OK|
 +----------------------+------+---------+---------+------------------+
 | H-Energy             | 0.98 | 1.0E-04 | 1.4E-03 |  5.4  6.3E-02  OK|
 +----------------------+------+---------+---------+------------------+
 | K-TurbKE             | 0.95 | 2.5E-04 | 2.5E-03 |  5.4  5.0E-02  OK|
 | E-Diss.K             | 0.95 | 3.5E-04 | 6.0E-03 |  7.2  1.6E-02  OK|
 +----------------------+------+---------+---------+------------------+

 ======================================================================
 OUTER LOOP ITERATION =  185 (   31) CPU SECONDS = 2.009E+02 (3.463E+01)
 ----------------------------------------------------------------------
 |       Equation       | Rate | RMS Res | Max Res |  Linear Solution |
 +----------------------+------+---------+---------+------------------+
 | U-Mom                | 0.99 | 9.9E-05 | 6.3E-03 |       2.9E-02  OK|
 | V-Mom                | 0.98 | 1.0E-04 | 6.5E-03 |       3.0E-02  OK|
 | W-Mom                | 0.99 | 4.7E-05 | 2.6E-03 |       1.4E-01  ok|
 | P-Mass               | 0.98 | 2.1E-05 | 2.5E-04 | 13.5  4.9E-02  OK|
 +----------------------+------+---------+---------+------------------+
 | H-Energy             | 0.99 | 9.9E-05 | 1.5E-03 |  5.4  6.2E-02  OK|
 +----------------------+------+---------+---------+------------------+
 | K-TurbKE             | 0.95 | 2.4E-04 | 2.7E-03 |  5.4  5.0E-02  OK|
 | E-Diss.K             | 0.95 | 3.3E-04 | 5.7E-03 |  7.2  1.6E-02  OK|
 +----------------------+------+---------+---------+------------------+

 ======================================================================
 |                        Timescale Information                       |
 ----------------------------------------------------------------------
 |       Equation       |         Type          |      Timescale      |
 +----------------------+-----------------------+---------------------+
 | U-Mom                | Auto Timescale        |     1.89792E-01     |
 | V-Mom                | Auto Timescale        |     1.89792E-01     |
 | W-Mom                | Auto Timescale        |     1.89792E-01     |
 +----------------------+-----------------------+---------------------+
 | H-Energy             | Auto Timescale        |     1.89792E-01     |
 +----------------------+-----------------------+---------------------+
 | K-TurbKE             | Auto Timescale        |     1.89792E-01     |
 | E-Diss.K             | Auto Timescale        |     1.89792E-01     |
 +----------------------+-----------------------+---------------------+

 ======================================================================
 OUTER LOOP ITERATION =  186 (   32) CPU SECONDS = 2.019E+02 (3.567E+01)
 ----------------------------------------------------------------------
 |       Equation       | Rate | RMS Res | Max Res |  Linear Solution |
 +----------------------+------+---------+---------+------------------+
 | U-Mom                | 0.99 | 9.8E-05 | 6.4E-03 |       2.8E-02  OK|
 | V-Mom                | 0.98 | 1.0E-04 | 6.6E-03 |       2.9E-02  OK|
 | W-Mom                | 0.99 | 4.7E-05 | 2.9E-03 |       1.4E-01  ok|
 | P-Mass               | 0.98 | 2.0E-05 | 2.5E-04 | 13.5  4.8E-02  OK|
 +----------------------+------+---------+---------+------------------+
 | H-Energy             | 0.99 | 9.8E-05 | 1.5E-03 |  5.4  5.9E-02  OK|
 +----------------------+------+---------+---------+------------------+
 | K-TurbKE             | 0.95 | 2.3E-04 | 2.6E-03 |  5.4  4.9E-02  OK|
 | E-Diss.K             | 0.94 | 3.1E-04 | 5.3E-03 |  7.2  1.6E-02  OK|
 +----------------------+------+---------+---------+------------------+

 ======================================================================
 OUTER LOOP ITERATION =  187 (   33) CPU SECONDS = 2.030E+02 (3.674E+01)
 ----------------------------------------------------------------------
 |       Equation       | Rate | RMS Res | Max Res |  Linear Solution |
 +----------------------+------+---------+---------+------------------+
 | U-Mom                | 0.98 | 9.6E-05 | 6.4E-03 |       2.8E-02  OK|
 | V-Mom                | 0.98 | 9.9E-05 | 6.6E-03 |       2.9E-02  OK|
 | W-Mom                | 0.99 | 4.6E-05 | 3.2E-03 |       1.4E-01  ok|
 | P-Mass               | 0.98 | 2.0E-05 | 2.4E-04 | 13.5  4.8E-02  OK|
 +----------------------+------+---------+---------+------------------+
 | H-Energy             | 0.99 | 9.7E-05 | 1.6E-03 |  5.4  5.8E-02  OK|
 +----------------------+------+---------+---------+------------------+
 | K-TurbKE             | 0.95 | 2.1E-04 | 2.4E-03 |  5.4  4.9E-02  OK|
 | E-Diss.K             | 0.96 | 3.0E-04 | 5.0E-03 |  7.2  1.5E-02  OK|
 +----------------------+------+---------+---------+------------------+
                   
 CFD Solver finished: Mon Dec 10 11:42:30 2018
 CFD Solver wall clock seconds: 3.4943E+01

 ======================================================================
              Termination and Interrupt Condition Summary
 ======================================================================
    
 CFD Solver: All target criteria reached
   (Equation residuals)

 ======================================================================
              Boundary Flow and Total Source Term Summary
 ======================================================================

 +--------------------------------------------------------------------+
 |                               U-Mom                                |
 +--------------------------------------------------------------------+
 Boundary         : Default Domain Default                 -1.4765E+01
 Boundary         : in1                                     6.1843E-05
 Boundary         : in2                                    -6.5443E-05
 Boundary         : out                                     1.6296E+01
                                                           -----------
 Domain Imbalance :                                         1.5310E+00

 +--------------------------------------------------------------------+
 |                               V-Mom                                |
 +--------------------------------------------------------------------+
 Boundary         : Default Domain Default                  1.8691E+01
 Boundary         : in1                                     5.5304E+04
 Boundary         : in2                                    -5.5348E+04
 Boundary         : out                                     2.3698E+01
                                                           -----------
 Domain Imbalance :                                        -1.0446E+00

 +--------------------------------------------------------------------+
 |                               W-Mom                                |
 +--------------------------------------------------------------------+
 Boundary         : Default Domain Default                 -1.1833E+04
 Boundary         : in1                                    -1.3511E-05
 Boundary         : in2                                    -6.4782E-06
 Boundary         : out                                     1.1873E+04
                                                           -----------
 Domain Imbalance :                                         4.0390E+01

 +--------------------------------------------------------------------+
 |                               P-Mass                               |
 +--------------------------------------------------------------------+
 Boundary         : in1                                     1.5000E+03
 Boundary         : in2                                     1.5000E+03
 Boundary         : out                                    -2.9997E+03
                                                           -----------
 Domain Imbalance :                                         2.7515E-01

 +--------------------------------------------------------------------+
 |                              H-Energy                              |
 +--------------------------------------------------------------------+
 Boundary         : in1                                     1.0569E+08
 Boundary         : in2                                    -8.2484E+07
 Boundary         : out                                    -2.3335E+07
                                                           -----------
 Domain Imbalance :                                        -1.2705E+05


 +--------------------------------------------------------------------+
 |                     Normalised Imbalance Summary                   |
 +--------------------------------------------------------------------+
 |       Equation       |      Maximum Flow     |     Imbalance (%)   |
 +--------------------------------------------------------------------+
 | U-Mom                |       5.5348E+04      |        0.0028       |
 | V-Mom                |       5.5348E+04      |       -0.0019       |
 | W-Mom                |       5.5348E+04      |        0.0730       |
 | P-Mass               |       2.9997E+03      |        0.0092       |
 +----------------------+-----------------------+---------------------+
 | H-Energy             |       1.0569E+08      |       -0.1202       |
 +----------------------+-----------------------+---------------------+

 ======================================================================
                     Wall Force and Moment Summary
 ======================================================================
                                                                          
 Notes:
 1. Pressure integrals exclude the reference pressure.  To include
    it, set the expert parameter 'include pref in forces = t'.


 +--------------------------------------------------------------------+
 |                      Pressure Force On Walls                       |
 +--------------------------------------------------------------------+
                                    X-Comp.      Y-Comp.      Z-Comp.

 Domain Group: Default Domain

 Default Domain Default           1.2957E+01  -2.0828E+01   1.1925E+04
                                  -----------  -----------  -----------
 Domain Group Totals :            1.2957E+01  -2.0828E+01   1.1925E+04


 +--------------------------------------------------------------------+
 |                       Viscous Force On Walls                       |
 +--------------------------------------------------------------------+
                                    X-Comp.      Y-Comp.      Z-Comp.

 Domain Group: Default Domain

 Default Domain Default           1.7331E+00   2.1952E+00  -9.1881E+01
                                  -----------  -----------  -----------
 Domain Group Totals :            1.7331E+00   2.1952E+00  -9.1881E+01


 +--------------------------------------------------------------------+
 |                      Pressure Moment On Walls                      |
 +--------------------------------------------------------------------+
                                    X-Comp.      Y-Comp.      Z-Comp.

 Domain Group: Default Domain

 Default Domain Default           7.1570E+01  -7.4856E+01  -9.3778E+04
                                  -----------  -----------  -----------
 Domain Group Totals :            7.1570E+01  -7.4856E+01  -9.3778E+04


 +--------------------------------------------------------------------+
 |                       Viscous Moment On Walls                      |
 +--------------------------------------------------------------------+
                                    X-Comp.      Y-Comp.      Z-Comp.

 Domain Group: Default Domain

 Default Domain Default          -2.8591E+00   4.1333E+00  -5.1783E+03
                                  -----------  -----------  -----------
 Domain Group Totals :           -2.8591E+00   4.1333E+00  -5.1783E+03


 +--------------------------------------------------------------------+
 |                   Locations of Maximum Residuals                   |
 +--------------------------------------------------------------------+
 |       Equation       |      Domain Name      |     Node Number     |
 +--------------------------------------------------------------------+
 | U-Mom                | Default Domain        |          24818      |
 | V-Mom                | Default Domain        |          24818      |
 | W-Mom                | Default Domain        |          24818      |
 | P-Mass               | Default Domain        |          26074      |
 +----------------------+-----------------------+---------------------+
 | H-Energy             | Default Domain        |          25858      |
 +----------------------+-----------------------+---------------------+
 | K-TurbKE             | Default Domain        |          19699      |
 | E-Diss.K             | Default Domain        |          26094      |
 +----------------------+-----------------------+---------------------+

 ======================================================================
 |                     False Transient Information                    |
 +--------------------------------------------------------------------+
 |       Equation       |         Type          | Elapsed Pseudo-Time |
 +--------------------------------------------------------------------+
 | U-Mom                | Auto Timescale        |     6.66259E+00     |
 | V-Mom                | Auto Timescale        |     6.66259E+00     |
 | W-Mom                | Auto Timescale        |     6.66259E+00     |
 +----------------------+-----------------------+---------------------+
 | H-Energy             | Auto Timescale        |     6.66259E+00     |
 +----------------------+-----------------------+---------------------+
 | K-TurbKE             | Auto Timescale        |     6.66259E+00     |
 | E-Diss.K             | Auto Timescale        |     6.66259E+00     |
 +----------------------+-----------------------+---------------------+

 +--------------------------------------------------------------------+
 |                     Average Scale Information                      |
 +--------------------------------------------------------------------+

 Domain Name : Default Domain
     Global Length                                         = 3.2212E+00
     Minimum Extent                                        = 4.0000E+00
     Maximum Extent                                        = 6.0000E+00
     Density                                               = 9.9700E+02
     Dynamic Viscosity                                     = 8.8990E-04
     Velocity                                              = 5.3154E+00
     Advection Time                                        = 6.0602E-01
     Reynolds Number                                       = 1.9183E+07
     Thermal Conductivity                                  = 6.0690E-01
     Specific Heat Capacity at Constant Pressure           = 4.1817E+03
     Prandtl Number                                        = 6.1316E+00
     Temperature Range                                     = 3.0021E+01

 +--------------------------------------------------------------------+
 |                     Variable Range Information                     |
 +--------------------------------------------------------------------+

 Domain Name : Default Domain
 +--------------------------------------------------------------------+
 |      Variable Name                         |    min    |    max    |
 +--------------------------------------------------------------------+
 | Density                                    |  9.97E+02 |  9.97E+02 |
 | Specific Heat Capacity at Constant Pressure|  4.18E+03 |  4.18E+03 |
 | Dynamic Viscosity                          |  8.90E-04 |  8.90E-04 |
 | Thermal Conductivity                       |  6.07E-01 |  6.07E-01 |
 | Static Entropy                             | -1.89E+02 |  2.30E+02 |
 | Velocity u                                 | -6.39E+00 |  6.36E+00 |
 | Velocity v                                 | -6.53E+00 |  6.53E+00 |
 | Velocity w                                 | -5.22E+00 |  1.83E+00 |
 | Pressure                                   | -9.71E+03 |  6.97E+04 |
 | Turbulence Kinetic Energy                  |  1.07E-04 |  4.39E+00 |
 | Turbulence Eddy Dissipation                |  3.09E-04 |  2.30E+02 |
 | Eddy Viscosity                             |  1.33E-03 |  3.25E+02 |
 | Temperature                                |  2.85E+02 |  3.15E+02 |
 | Static Enthalpy                            | -5.50E+04 |  7.05E+04 |
 +--------------------------------------------------------------------+

 +--------------------------------------------------------------------+
 |               CPU Requirements of Numerical Solution               |
 +--------------------------------------------------------------------+

 Subsystem Name                  Discretization       Linear Solution
                                (secs.   %total)     (secs.   %total) 
 ----------------------------------------------------------------------
 Momentum and Mass              1.20E+01  29.2 %     4.02E+00   9.8 %
 Heat Transfer                  4.05E+00   9.9 %     1.34E+00   3.3 %
 TurbKE and Diss.K              6.30E+00  15.3 %     2.97E+00   7.2 %
                                -------- -------     --------  ------
 Subsystem Summary              2.24E+01  54.4 %     8.33E+00  20.2 %

 File Reading                   3.00E-02    0.1 %
 Search Calculations            9.99E-04    0.0 %
 Variable Updates               4.01E+00    9.7 %
 File Writing                   5.45E-01    1.3 %
 Miscellaneous                  5.84E+00   14.2 %
                                --------
 Total                          4.12E+01

 +--------------------------------------------------------------------+
 |                   Job Information at End of Run                    |
 +--------------------------------------------------------------------+

 Host computer:  ENPC-LAB121 (PID:1692)

 Job finished:   Mon Dec 10 11:42:34 2018

 Total wall clock time: 4.115E+01 seconds
             or: (          0:         0:         0:    41.145 )
                 (       Days:     Hours:   Minutes:   Seconds )

End of solution stage.

 +--------------------------------------------------------------------+
 | The results from this run of the ANSYS CFX Solver have been        |
 | written to D:/CFD                                                  |
 | BackUps/CFD-Static-Mixer/StaticMixerDX_pending/dp14_CFX_Solution/- |
 | Fluid Flow CFX_003.res                                             |
 +--------------------------------------------------------------------+


 +--------------------------------------------------------------------+
 | For CFX runs launched from Workbench, the final locations of       |
 | directories and files generated may differ from those shown.       |
 +--------------------------------------------------------------------+


This run of the ANSYS CFX Solver has finished.
