 This run of the CFX Release 19.1 Solver started at 13:05:03 on 07 Dec
 2018 by user jc2182 on ENPC-LAB119 (intel_xeon64.sse2_winnt) using the
 command:
 
  "C:\Program Files\ANSYS Inc\v191\CFX\bin\perllib\cfx5solve.pl" -batch
    -ccl runInput.ccl -fullname "Fluid Flow CFX_001"
 
 Release 19.1
 
  Point Releases and Patches installed:
  ANSYS, Inc. Products Release 19.1
  SpaceClaim Release 19.1
  Autodyn Release 19.1
  LS-DYNA Release 19.1
  CFD-Post only Release 19.1
  CFX (includes CFD-Post) Release 19.1
  Chemkin Release 19.1
  EnSight Release 19.1
  FENSAP-ICE Release 19.1
  Fluent (includes CFD-Post) Release 19.1
  Forte Release 19.1
  Polyflow (includes CFD-Post) Release 19.1
  TurboGrid Release 19.1
  ICEM CFD Release 19.1
  Customization Files for User Programmable Features Release 19.1
  Mechanical Products Release 19.1
  Icepak (includes CFD-Post) Release 19.1
  Remote Solve Manager Standalone Services Release 19.1
  ACIS Geometry Interface Release 19.1
  Catia, Version 5 Geometry Interface Release 19.1
  NX Geometry Interface Release 19.1
  Parasolid Geometry Interface  Release 19.1
  ANSYS, Inc. License Manager Release 19.1
 
 Setting up CFX Solver run ...
 
 
 +--------------------------------------------------------------------+
 |                                                                    |
 |                    CFX Command Language for Run                    |
 |                                                                    |
 +--------------------------------------------------------------------+
 
 LIBRARY:
   CEL:
     EXPRESSIONS:
       inMassFlow = 1500 [kg s^-1]
     END
   END
   MATERIAL: Water
     Material Description = Water (liquid)
     Material Group = Water Data, Constant Property Liquids
     Option = Pure Substance
     Thermodynamic State = Liquid
     PROPERTIES:
       Option = General Material
       EQUATION OF STATE:
         Density = 997.0 [kg m^-3]
         Molar Mass = 18.02 [kg kmol^-1]
         Option = Value
       END
       SPECIFIC HEAT CAPACITY:
         Option = Value
         Specific Heat Capacity = 4181.7 [J kg^-1 K^-1]
         Specific Heat Type = Constant Pressure
       END
       REFERENCE STATE:
         Option = Specified Point
         Reference Pressure = 1 [atm]
         Reference Specific Enthalpy = 0.0 [J/kg]
         Reference Specific Entropy = 0.0 [J/kg/K]
         Reference Temperature = 25 [C]
       END
       DYNAMIC VISCOSITY:
         Dynamic Viscosity = 8.899E-4 [kg m^-1 s^-1]
         Option = Value
       END
       THERMAL CONDUCTIVITY:
         Option = Value
         Thermal Conductivity = 0.6069 [W m^-1 K^-1]
       END
       ABSORPTION COEFFICIENT:
         Absorption Coefficient = 1.0 [m^-1]
         Option = Value
       END
       SCATTERING COEFFICIENT:
         Option = Value
         Scattering Coefficient = 0.0 [m^-1]
       END
       REFRACTIVE INDEX:
         Option = Value
         Refractive Index = 1.0 [m m^-1]
       END
       THERMAL EXPANSIVITY:
         Option = Value
         Thermal Expansivity = 2.57E-04 [K^-1]
       END
     END
   END
 END
 FLOW: Flow Analysis 1
   SOLUTION UNITS:
     Angle Units = [rad]
     Length Units = [m]
     Mass Units = [kg]
     Solid Angle Units = [sr]
     Temperature Units = [K]
     Time Units = [s]
   END
   ANALYSIS TYPE:
     Option = Transient
     EXTERNAL SOLVER COUPLING:
       Option = None
     END
     INITIAL TIME:
       Option = Value
       Time = 0 [s]
     END
     TIME DURATION:
       Option = Total Time
       Total Time = 30 [s]
     END
     TIME STEPS:
       Option = Timesteps
       Timesteps = 0.1 [s]
     END
   END
   DOMAIN: Default Domain
     Coord Frame = Coord 0
     Domain Type = Fluid
     Location = B17
     BOUNDARY: Default Domain Default
       Boundary Type = WALL
       Location = F12.17,F14.17,F16.17,F19.17,F20.17,F21.17,F29.17,F30.17
       BOUNDARY CONDITIONS:
         HEAT TRANSFER:
           Option = Adiabatic
         END
         MASS AND MOMENTUM:
           Option = No Slip Wall
         END
         WALL ROUGHNESS:
           Option = Smooth Wall
         END
       END
     END
     BOUNDARY: in1
       Boundary Type = INLET
       Location = in1
       BOUNDARY CONDITIONS:
         FLOW DIRECTION:
           Option = Normal to Boundary Condition
         END
         FLOW REGIME:
           Option = Subsonic
         END
         HEAT TRANSFER:
           Option = Static Temperature
           Static Temperature = 315 [K]
         END
         MASS AND MOMENTUM:
           Mass Flow Rate = inMassFlow
           Mass Flow Rate Area = As Specified
           Option = Mass Flow Rate
         END
         TURBULENCE:
           Fractional Intensity = 0.01
           Option = Intensity and Auto Compute Length
         END
       END
     END
     BOUNDARY: in2
       Boundary Type = INLET
       Location = in2
       BOUNDARY CONDITIONS:
         FLOW DIRECTION:
           Option = Normal to Boundary Condition
         END
         FLOW REGIME:
           Option = Subsonic
         END
         HEAT TRANSFER:
           Option = Static Temperature
           Static Temperature = 285 [K]
         END
         MASS AND MOMENTUM:
           Mass Flow Rate = inMassFlow
           Mass Flow Rate Area = As Specified
           Option = Mass Flow Rate
         END
         TURBULENCE:
           Fractional Intensity = 0.01
           Option = Intensity and Auto Compute Length
         END
       END
     END
     BOUNDARY: out
       Boundary Type = OUTLET
       Location = out
       BOUNDARY CONDITIONS:
         FLOW REGIME:
           Option = Subsonic
         END
         MASS AND MOMENTUM:
           Option = Static Pressure
           Relative Pressure = 0 [Pa]
         END
       END
     END
     DOMAIN MODELS:
       BUOYANCY MODEL:
         Option = Non Buoyant
       END
       DOMAIN MOTION:
         Option = Stationary
       END
       MESH DEFORMATION:
         Option = None
       END
       REFERENCE PRESSURE:
         Reference Pressure = 1 [atm]
       END
     END
     FLUID DEFINITION: Fluid 1
       Material = Water
       Option = Material Library
       MORPHOLOGY:
         Option = Continuous Fluid
       END
     END
     FLUID MODELS:
       COMBUSTION MODEL:
         Option = None
       END
       HEAT TRANSFER MODEL:
         Option = Thermal Energy
       END
       THERMAL RADIATION MODEL:
         Option = None
       END
       TURBULENCE MODEL:
         Option = SST
       END
       TURBULENT WALL FUNCTIONS:
         Option = Automatic
       END
     END
     INITIALISATION:
       Option = Automatic
       INITIAL CONDITIONS:
         Velocity Type = Cartesian
         CARTESIAN VELOCITY COMPONENTS:
           Option = Automatic with Value
           U = 0 [m s^-1]
           V = 0 [m s^-1]
           W = 0 [m s^-1]
         END
         STATIC PRESSURE:
           Option = Automatic with Value
           Relative Pressure = 0 [Pa]
         END
         TEMPERATURE:
           Option = Automatic with Value
           Temperature = 290 [K]
         END
         TURBULENCE INITIAL CONDITIONS:
           Option = High Intensity and Eddy Viscosity Ratio
         END
       END
     END
   END
   OUTPUT CONTROL:
     RESULTS:
       File Compression Level = Default
       Option = Standard
     END
     TRANSIENT RESULTS: Transient Results 1
       File Compression Level = Default
       Option = Standard
       OUTPUT FREQUENCY:
         Option = Time Interval
         Time Interval = 0.5 [s]
       END
     END
   END
   SOLVER CONTROL:
     Turbulence Numerics = First Order
     ADVECTION SCHEME:
       Option = Upwind
     END
     CONVERGENCE CONTROL:
       Maximum Number of Coefficient Loops = 10
       Minimum Number of Coefficient Loops = 1
       Timescale Control = Coefficient Loops
     END
     CONVERGENCE CRITERIA:
       Residual Target = 1.E-4
       Residual Type = RMS
     END
     TRANSIENT SCHEME:
       Option = Second Order Backward Euler
       TIMESTEP INITIALISATION:
         Option = Automatic
       END
     END
   END
 END
 COMMAND FILE:
   Version = 19.1
   Results Version = 19.1
 END
 PARAMETERIZATION:
   INPUT FIELD: inMassFlow
     Expression Name = inMassFlow
     Method = Expression
   END
 END
 SIMULATION CONTROL:
   EXECUTION CONTROL:
     EXECUTABLE SELECTION:
       Double Precision = No
       Large Problem = No
     END
     INTERPOLATOR STEP CONTROL:
       Runtime Priority = Standard
       MEMORY CONTROL:
         Memory Allocation Factor = 1.0
       END
     END
     PARALLEL HOST LIBRARY:
       HOST DEFINITION: enpclab119
         Remote Host Name = ENPC-LAB119
         Host Architecture String = winnt-amd64
         Installation Root = C:\Program Files\ANSYS Inc\v%v\CFX
       END
     END
     PARTITIONER STEP CONTROL:
       Multidomain Option = Automatic
       Runtime Priority = Standard
       MEMORY CONTROL:
         Memory Allocation Factor = 1.0
       END
       PARTITION SMOOTHING:
         Maximum Partition Smoothing Sweeps = 100
         Option = Smooth
       END
       PARTITIONING TYPE:
         MeTiS Type = k-way
         Option = MeTiS
         Partition Size Rule = Automatic
         Partition Weight Factors = 0.25000, 0.25000, 0.25000, 0.25000
       END
     END
     RUN DEFINITION:
       Run Mode = Full
       Solver Input File = Fluid Flow CFX.def
       Solver Results File = \
         H:/dos/CFD/CW/CFD-Static-Mixer/StaticMixerDX_pending/dp6_CFX_Solution\
         /Fluid Flow CFX_001.res
     END
     SOLVER STEP CONTROL:
       Runtime Priority = Standard
       MEMORY CONTROL:
         Memory Allocation Factor = 1.0
       END
       PARALLEL ENVIRONMENT:
         Number of Processes = 4
         Start Method = Intel MPI Local Parallel
         Parallel Host List = enpclab119*4
       END
     END
   END
 END
 
 
 +--------------------------------------------------------------------+
 |                                                                    |
 |                            Partitioning                            |
 |                                                                    |
 +--------------------------------------------------------------------+
 



 +--------------------------------------------------------------------+
 |                                                                    |
 |                     ANSYS(R) CFX(R) Partitioner                    |
 |                                                                    |
 | Release 19.1                                                       |
 | Build 19.1 2018-04-17T13:27:50.069000                              |
 | Tue Apr 17 15:02:11 GMTDT 2018                                     |
 |                                                                    |
 |                        Executable Attributes                       |
 |                                                                    |
 |           single-64bit-int32-archfort-optimised-std-lcomp          |
 |                                                                    |
 | (C) 1996-2018 ANSYS, Inc.                                          |
 |                                                                    |
 | All rights reserved. Unauthorized use, distribution or duplication |
 | is prohibited. This product is subject to U.S. laws governing      |
 | export and re-export. For full Legal Notice, see documentation.    |
 +--------------------------------------------------------------------+




 +--------------------------------------------------------------------+
 |                  Job Information at Start of Run                   |
 +--------------------------------------------------------------------+

 Run mode:       partitioning run

 Host computer:  ENPC-LAB119 (PID:236)

 Job started:    Fri Dec  7 13:05:07 2018

 +--------------------------------------------------------------------+
 |                        License Information                         |
 +--------------------------------------------------------------------+
 
 License Cap:    ANSYS CFX Solver (Max 128K Nodes)
 License Cap:     Parallel
 License ID:     VIGO_campus_bath_ac_uk-SYSTEM-1456-1203991


 +--------------------------------------------------------------------+
 |        Memory Allocated for Run  (Actual usage may be less)        |
 +--------------------------------------------------------------------+

           | Real       | Integer    | Character | Logical  | Double
 ----------+------------+------------+-----------+----------+----------
 Mwords    |       1.18 |       4.19 |      6.85 |     0.12 |     0.90
 Mbytes    |       4.51 |      15.97 |      6.53 |     0.46 |     6.87
 ----------+------------+------------+-----------+----------+----------


 +--------------------------------------------------------------------+
 |                  Host Memory Information (Mbytes)                  |
 +--------------------------------------------------------------------+
 |          Host           |     System     |   Allocated    |   %    |
 +-------------------------+----------------+----------------+--------+
 | ENPC-LAB119             |     16241.86   |        34.34   |   0.21 |
 +-------------------------+----------------+----------------+--------+

 +--------------------------------------------------------------------+
 | The MeTiS partitioning method allocates additional memory.         |
 | Total memory usage will therefore exceed the values shown above.   |
 +--------------------------------------------------------------------+

 +--------------------------------------------------------------------+
 |                      Topology Simplification                       |
 +--------------------------------------------------------------------+

 +--------------------------------------------------------------------+
 |                       ****** Warning ******                        |
 |                                                                    |
 | Topology simplification is activated with the following            |
 | restrictions:                                                      |
 |                                                                    |
 | - Mesh regions referenced only within User Fortran and NOT         |
 |   in the command file will cause the solver to stop.               |
 | - The solver will stop during any "Edit Run in Progress" step      |
 |   if new 2D regions are referenced.                                |
 +--------------------------------------------------------------------+

 +--------------------------------------------------------------------+
 |                          Mesh Statistics                           |
 +--------------------------------------------------------------------+

 Domain Name : Default Domain

     Total Number of Nodes                                =       37799

     Total Number of Elements                             =      125188
         Total Number of Tetrahedrons                     =       82905
         Total Number of Prisms                           =       41923
         Total Number of Pyramids                         =         360

     Total Number of Faces                                =       10637

 +--------------------------------------------------------------------+
 |                     Vertex Based Partitioning                      |
 +--------------------------------------------------------------------+

 Partitioning of domain: Default Domain

 - Partitioning tool:       MeTiS multilevel k-way algorithm
 - Number of partitions:             4
 - Number of graph-nodes:        37799
 - Number of graph-edges:       378896

 +--------------------------------------------------------------------+
 |                 Iso-Partition Connection Statistics                |
 +--------------------------------------------------------------------+
 | Domains in Group          |        |           Vertices            |
 |                           | Smooth +---------+----------+----------+
 |                           | Sweeps |  Moves  |   <25%   |   <50%   |
 +---------------------------+--------+---------+----------+----------+
 | Default Domain            |     2  |       5 |       0  |      17  |
 +---------------------------+--------+---------+----------+----------+

 +--------------------------------------------------------------------+
 |                      Partitioning Information                      |
 +--------------------------------------------------------------------+

 Partitioning information for domain: Default Domain

        +------------------+------------------------+-----------------+
        |     Elements     |        Vertices        |     Faces       |
 +------+------------------+------------------------+-----------------+
 | Part |   Number     %   |   Number     %   %Ovlp |  Number     %   |
 +------+------------------+------------------------+-----------------+
 | Full |    125188        |     37799              |    10637        |
 +------+------------------+------------------------+-----------------+
 |    1 |     43619   32.9 |     11235   26.6  13.4 |     2127   19.3 |
 |    2 |     22132   16.7 |     10113   23.9   9.3 |     3444   31.3 |
 |    3 |     27458   20.7 |      9844   23.3   6.8 |     3141   28.5 |
 |    4 |     39533   29.8 |     11100   26.2  12.4 |     2300   20.9 |
 +------+------------------+------------------------+-----------------+
 | Min  |     22132   16.7 |      9844   23.3   6.8 |     2127   19.3 |
 |(part)|           (    2)|           (    3     3)|          (    1)|
 +------+------------------+------------------------+-----------------+
 | Max  |     43619   32.9 |     11235   26.6  13.4 |     3444   31.3 |
 |(part)|           (    1)|           (    1     1)|          (    2)|
 +------+------------------+------------------------+-----------------+
 | Ave  |     33186   25.0 |     10573   25.0  10.5 |     2753   25.0 |
 +------+------------------+------------------------+-----------------+
 | Sum  |    132742  100.0 |     42292  100.0       |    11012  100.0 |
 +------+------------------+------------------------+-----------------+

 +--------------------------------------------------------------------+
 |                 Partitioning CPU-Time Requirements                 |
 +--------------------------------------------------------------------+
 Preparations                   5.60E-02    2.2 %
 Low-level Mesh Partitioning    2.10E-02    0.8 %
 File Reading                   5.70E-02    2.3 %
 Partition Smoothing            5.80E-02    2.3 %
 Topology - Global              3.00E-03    0.1 %
 Topology - Element/Face/Patch  6.00E-03    0.2 %
 Topology - Vertex              1.00E-03    0.0 %
 Data Compression               1.00E-03    0.0 %
 Variable Updates               2.00E-03    0.1 %
 File Writing                   3.00E-02    1.2 %
 Miscellaneous                  2.29E+00   90.7 %
                                --------
 Total                          2.52E+00

 +--------------------------------------------------------------------+
 |                   Job Information at End of Run                    |
 +--------------------------------------------------------------------+

 Host computer:  ENPC-LAB119 (PID:236)

 Job finished:   Fri Dec  7 13:05:09 2018

 Total wall clock time: 2.516E+00 seconds
             or: (          0:         0:         0:     2.516 )
                 (       Days:     Hours:   Minutes:   Seconds )

 
 +--------------------------------------------------------------------+
 |                                                                    |
 |                               Solver                               |
 |                                                                    |
 +--------------------------------------------------------------------+
 



 +--------------------------------------------------------------------+
 |                                                                    |
 |                       ANSYS(R) CFX(R) Solver                       |
 |                                                                    |
 | Release 19.1                                                       |
 | Build 19.1 2018-04-17T13:27:50.069000                              |
 | Tue Apr 17 15:02:11 GMTDT 2018                                     |
 |                                                                    |
 |                        Executable Attributes                       |
 |                                                                    |
 |           single-64bit-int32-archfort-optimised-std-lcomp          |
 |                                                                    |
 | (C) 1996-2018 ANSYS, Inc.                                          |
 |                                                                    |
 | All rights reserved. Unauthorized use, distribution or duplication |
 | is prohibited. This product is subject to U.S. laws governing      |
 | export and re-export. For full Legal Notice, see documentation.    |
 +--------------------------------------------------------------------+




 +--------------------------------------------------------------------+
 |                  Job Information at Start of Run                   |
 +--------------------------------------------------------------------+

 Run mode:       parallel run (MPI)

 Job started:    Fri Dec  7 13:05:10 2018

 +--------------------------------------------------------------------+
 |                        License Information                         |
 +--------------------------------------------------------------------+
 
 License Cap:    ANSYS CFX Solver (Max 128K Nodes)
 License Cap:     Parallel
 License ID:     VIGO_campus_bath_ac_uk-SYSTEM-1456-1204005


 +--------------------------------------------------------------------+
 |        Memory Allocated for Run  (Actual usage may be less)        |
 +--------------------------------------------------------------------+

 Allocated storage in:    Mwords
                          Mbytes

 Partition | Real       | Integer    | Character | Logical  | Double
 ----------+------------+------------+-----------+----------+----------
   Minimum |      15.13 |       2.66 |      7.31 |     0.12 |     0.91
  (     2) |      57.70 |      10.15 |      6.97 |     0.11 |     6.93
 ----------+------------+------------+-----------+----------+----------
   Maximum |      15.74 |       3.11 |      7.31 |     0.12 |     0.91
  (     1) |      60.03 |      11.88 |      6.97 |     0.11 |     6.93
 ----------+------------+------------+-----------+----------+----------
   Average |      15.44 |       2.89 |      7.31 |     0.12 |     0.91
           |      58.90 |      11.04 |      6.97 |     0.11 |     6.93
 ----------+------------+------------+-----------+----------+----------
     Total |      61.76 |      11.58 |     29.24 |     0.48 |     3.63
           |     235.58 |      44.16 |     27.89 |     0.46 |    27.71
 ----------+------------+------------+-----------+----------+----------


 +--------------------------------------------------------------------+
 |                  Host Memory Information (Mbytes)                  |
 +--------------------------------------------------------------------+
 |           Host         | Npart |   System    |  Allocated  |   %   |
 +------------------------+-------+-------------+-------------+-------+
 | ENPC-LAB119            |    4  |    16241.86 |      335.80 |  2.07 |
 +------------------------+-------+-------------+-------------+-------+


 +--------------------------------------------------------------------+
 |                     ****** Notice ******                           |
 | The Wall Heat Transfer Coefficient written to the results file for |
 | any turbulent phase with heat transfer is based on the turbulent   |
 | wall function coefficient. It is consistent with the Wall Heat Flux|
 | the wall temperature, and the Wall Adjacent Temperature            |
 | (near-wall temperature).  If you would like it to be based on a    |
 | user-specified bulk temperature instead, please set the expert     |
 | parameter "tbulk for htc = <value>".                               |
 +--------------------------------------------------------------------+

 +--------------------------------------------------------------------+
 |                      Topology Simplification                       |
 +--------------------------------------------------------------------+

 +--------------------------------------------------------------------+
 |                       ****** Warning ******                        |
 |                                                                    |
 | Topology simplification is activated with the following            |
 | restrictions:                                                      |
 |                                                                    |
 | - Mesh regions referenced only within User Fortran and NOT         |
 |   in the command file will cause the solver to stop.               |
 | - The solver will stop during any "Edit Run in Progress" step      |
 |   if new 2D regions are referenced.                                |
 +--------------------------------------------------------------------+

 +--------------------------------------------------------------------+
 |                          Mesh Statistics                           |
 +--------------------------------------------------------------------+
 | Domain Name          | Orthog. Angle | Exp. Factor  | Aspect Ratio |
 +----------------------+---------------+--------------+--------------+
 |                      | Minimum [deg] |   Maximum    |    Maximum   |
 +----------------------+---------------+--------------+--------------+
 | Default Domain       |       23.9 ok |        45  ! |        31 OK |
 +----------------------+---------------+--------------+--------------+
 |                      |  %!  %ok  %OK | %!  %ok  %OK | %!  %ok  %OK |
 +----------------------+---------------+--------------+--------------+
 | Default Domain       |   0    6   94 | <1    2   98 |  0    0  100 |
 +----------------------+---------------+--------------+--------------+

 Domain Name : Default Domain

     Total Number of Nodes                                =       37799

     Total Number of Elements                             =      125188
         Total Number of Tetrahedrons                     =       82905
         Total Number of Prisms                           =       41923
         Total Number of Pyramids                         =         360

     Total Number of Faces                                =       10637

 +--------------------------------------------------------------------+
 |                     Average Scale Information                      |
 +--------------------------------------------------------------------+

 Domain Name : Default Domain
     Global Length                                         = 3.2160E+00
     Minimum Extent                                        = 4.0000E+00
     Maximum Extent                                        = 6.0000E+00
     Density                                               = 9.9700E+02
     Dynamic Viscosity                                     = 8.8990E-04
     Velocity                                              = 0.0000E+00
     Thermal Conductivity                                  = 6.0690E-01
     Specific Heat Capacity at Constant Pressure           = 4.1817E+03
     Prandtl Number                                        = 6.1316E+00

 +--------------------------------------------------------------------+
 |                Checking for Isolated Fluid Regions                 |
 +--------------------------------------------------------------------+
 
 No isolated fluid regions were found.

 +--------------------------------------------------------------------+
 |              The Equations Solved in This Calculation              |
 +--------------------------------------------------------------------+

 Subsystem : Wall Scale

   Wallscale

 Subsystem : Momentum and Mass

   U-Mom
   V-Mom
   W-Mom
   P-Mass

 Subsystem : Heat Transfer

   H-Energy

 Subsystem : TurbKE and TurbFreq

   K-TurbKE
   O-TurbFreq
                   
 CFD Solver started: Fri Dec  7 13:05:15 2018


 +--------------------------------------------------------------------+
 |                       Convergence History                          |
 +--------------------------------------------------------------------+

 +--------------------------------------------------------------------+
 | Writing transient file 0_full.trn                                  |
 |   Name   : Transient Results 1                                     |
 |   Type   : Standard                                                |
 |   Option : Time Interval                                           |
 +--------------------------------------------------------------------+


 ======================================================================
 |                      Timestepping Information                      |
 ----------------------------------------------------------------------
 |       Timestep       |  RMS Courant Number  |  Max Courant Number  |
 +----------------------+----------------------+----------------------+
 |      1.0000E-01      |          0.00        |          0.00        |
 ----------------------------------------------------------------------

 ======================================================================
 TIME STEP =     1 SIMULATION TIME = 1.0000E-01 CPU SECONDS = 3.203E+01
 ----------------------------------------------------------------------
 | SOLVING : Wall Scale                                               |
 ----------------------------------------------------------------------
 |       Equation       | Rate | RMS Res | Max Res |  Linear Solution |
 +----------------------+------+---------+---------+------------------+
 | Wallscale            | 0.00 | 3.6E-03 | 1.2E-02 | 24.0  1.0E-01  OK|
 +----------------------+------+---------+---------+------------------+
 | Wallscale            | 0.38 | 1.4E-03 | 1.2E-02 | 14.8  8.5E-02  OK|
 +----------------------+------+---------+---------+------------------+
 | Wallscale            | 0.42 | 5.7E-04 | 5.7E-03 | 14.8  9.8E-02  OK|
 +----------------------+------+---------+---------+------------------+
 | Wallscale            | 0.45 | 2.6E-04 | 2.9E-03 | 19.4  6.7E-02  OK|
 +----------------------+------+---------+---------+------------------+
 | Wallscale            | 0.48 | 1.2E-04 | 1.5E-03 | 14.8  9.4E-02  OK|
 +----------------------+------+---------+---------+------------------+
 | Wallscale            | 0.48 | 5.9E-05 | 7.5E-04 | 14.8  9.9E-02  OK|
 +----------------------+------+---------+---------+------------------+
 ----------------------------------------------------------------------
 COEFFICIENT LOOP ITERATION =    1              CPU SECONDS = 3.359E+01
 ----------------------------------------------------------------------
 |       Equation       | Rate | RMS Res | Max Res |  Linear Solution |
 +----------------------+------+---------+---------+------------------+
 | U-Mom                | 0.00 | 0.0E+00 | 0.0E+00 |       0.0E+00  OK|
 | V-Mom                | 0.00 | 2.7E-02 | 4.0E-01 |       8.1E-03  OK|
 | W-Mom                | 0.00 | 0.0E+00 | 0.0E+00 |       0.0E+00  OK|
 | P-Mass               | 0.00 | 9.4E-04 | 4.0E-02 | 18.2  7.2E-02  OK|
 +----------------------+------+---------+---------+------------------+
 | H-Energy             | 0.00 | 3.8E-02 | 8.1E-01 |  5.5  1.4E-03  OK|
 +----------------------+------+---------+---------+------------------+
 | K-TurbKE             | 0.00 | 5.9E-02 | 1.0E+00 |  5.5  1.6E-03  OK|
 | O-TurbFreq           | 0.00 | 5.8E-02 | 1.0E+00 |  7.5  1.6E-03  OK|
 +----------------------+------+---------+---------+------------------+
 ----------------------------------------------------------------------
 COEFFICIENT LOOP ITERATION =    2              CPU SECONDS = 3.612E+01
 ----------------------------------------------------------------------
 |       Equation       | Rate | RMS Res | Max Res |  Linear Solution |
 +----------------------+------+---------+---------+------------------+
 | U-Mom                | 0.00 | 4.1E-03 | 7.6E-02 |       3.6E-02  OK|
 | V-Mom                | 0.47 | 1.3E-02 | 2.5E-01 |       1.2E-02  OK|
 | W-Mom                | 0.00 | 8.3E-03 | 2.2E-01 |       8.9E-03  OK|
 | P-Mass               | 0.80 | 7.6E-04 | 2.0E-02 | 13.9  8.7E-02  OK|
 +----------------------+------+---------+---------+------------------+
 | H-Energy             | 0.09 | 3.6E-03 | 1.4E-01 |  5.5  3.5E-03  OK|
 +----------------------+------+---------+---------+------------------+
 | K-TurbKE             | 0.17 | 1.0E-02 | 2.5E-01 |  5.5  2.6E-03  OK|
 | O-TurbFreq           | 0.54 | 3.1E-02 | 4.7E-01 |  7.5  1.9E-03  OK|
 +----------------------+------+---------+---------+------------------+
 ----------------------------------------------------------------------
 COEFFICIENT LOOP ITERATION =    3              CPU SECONDS = 3.840E+01
 ----------------------------------------------------------------------
 |       Equation       | Rate | RMS Res | Max Res |  Linear Solution |
 +----------------------+------+---------+---------+------------------+
 | U-Mom                | 0.54 | 2.2E-03 | 5.4E-02 |       9.6E-02  OK|
 | V-Mom                | 0.59 | 7.4E-03 | 7.2E-02 |       4.7E-02  OK|
 | W-Mom                | 0.68 | 5.6E-03 | 6.2E-02 |       4.6E-02  OK|
 | P-Mass               | 1.02 | 7.7E-04 | 1.0E-02 |  9.6  9.6E-02  OK|
 +----------------------+------+---------+---------+------------------+
 | H-Energy             | 0.17 | 6.1E-04 | 2.1E-02 |  5.6  3.1E-03  OK|
 +----------------------+------+---------+---------+------------------+
 | K-TurbKE             | 0.45 | 4.6E-03 | 1.4E-01 |  5.5  2.9E-03  OK|
 | O-TurbFreq           | 0.23 | 7.3E-03 | 1.1E-01 |  7.5  3.0E-03  OK|
 +----------------------+------+---------+---------+------------------+
 ----------------------------------------------------------------------
 COEFFICIENT LOOP ITERATION =    4              CPU SECONDS = 4.048E+01
 ----------------------------------------------------------------------
 |       Equation       | Rate | RMS Res | Max Res |  Linear Solution |
 +----------------------+------+---------+---------+------------------+
 | U-Mom                | 0.36 | 7.9E-04 | 2.1E-02 |       7.2E-02  OK|
 | V-Mom                | 0.37 | 2.7E-03 | 4.9E-02 |       3.7E-02  OK|
 | W-Mom                | 0.35 | 2.0E-03 | 2.4E-02 |       3.5E-02  OK|
 | P-Mass               | 0.46 | 3.5E-04 | 3.8E-03 | 13.9  6.5E-02  OK|
 +----------------------+------+---------+---------+------------------+
 | H-Energy             | 0.31 | 1.9E-04 | 2.6E-03 |  5.5  7.0E-03  OK|
 +----------------------+------+---------+---------+------------------+
 | K-TurbKE             | 0.59 | 2.7E-03 | 7.8E-02 |  5.6  4.6E-03  OK|
 | O-TurbFreq           | 0.77 | 5.6E-03 | 1.5E-01 |  7.5  3.4E-03  OK|
 +----------------------+------+---------+---------+------------------+
 ----------------------------------------------------------------------
 COEFFICIENT LOOP ITERATION =    5              CPU SECONDS = 4.272E+01
 ----------------------------------------------------------------------
 |       Equation       | Rate | RMS Res | Max Res |  Linear Solution |
 +----------------------+------+---------+---------+------------------+
 | U-Mom                | 0.60 | 4.7E-04 | 1.2E-02 |       9.8E-02  OK|
 | V-Mom                | 0.73 | 2.0E-03 | 2.3E-02 |       6.0E-02  OK|
 | W-Mom                | 0.81 | 1.6E-03 | 1.9E-02 |       3.5E-02  OK|
 | P-Mass               | 0.62 | 2.2E-04 | 2.5E-03 |  9.6  9.5E-02  OK|
 +----------------------+------+---------+---------+------------------+
 | H-Energy             | 0.30 | 5.7E-05 | 1.7E-03 |  5.6  2.4E-03  OK|
 +----------------------+------+---------+---------+------------------+
 | K-TurbKE             | 0.60 | 1.6E-03 | 4.3E-02 |  5.6  3.4E-03  OK|
 | O-TurbFreq           | 0.57 | 3.2E-03 | 6.5E-02 |  7.5  7.9E-03  OK|
 +----------------------+------+---------+---------+------------------+
 ----------------------------------------------------------------------
 COEFFICIENT LOOP ITERATION =    6              CPU SECONDS = 4.481E+01
 ----------------------------------------------------------------------
 |       Equation       | Rate | RMS Res | Max Res |  Linear Solution |
 +----------------------+------+---------+---------+------------------+
 | U-Mom                | 0.54 | 2.6E-04 | 8.6E-03 |       1.4E-01  ok|
 | V-Mom                | 0.42 | 8.3E-04 | 2.6E-02 |       9.0E-02  OK|
 | W-Mom                | 0.35 | 5.5E-04 | 1.2E-02 |       1.1E-01  ok|
 | P-Mass               | 0.60 | 1.3E-04 | 1.6E-03 |  9.6  9.7E-02  OK|
 +----------------------+------+---------+---------+------------------+
 | H-Energy             | 0.66 | 3.8E-05 | 9.5E-04 |  5.5  4.3E-03  OK|
 +----------------------+------+---------+---------+------------------+
 | K-TurbKE             | 0.66 | 1.1E-03 | 2.4E-02 |  5.5  4.3E-03  OK|
 | O-TurbFreq           | 0.51 | 1.6E-03 | 3.7E-02 |  7.4  3.8E-03  OK|
 +----------------------+------+---------+---------+------------------+
 ----------------------------------------------------------------------
 COEFFICIENT LOOP ITERATION =    7              CPU SECONDS = 4.692E+01
 ----------------------------------------------------------------------
 |       Equation       | Rate | RMS Res | Max Res |  Linear Solution |
 +----------------------+------+---------+---------+------------------+
 | U-Mom                | 0.57 | 1.5E-04 | 5.1E-03 |       1.2E-01  ok|
 | V-Mom                | 0.58 | 4.8E-04 | 8.8E-03 |       8.6E-02  OK|
 | W-Mom                | 0.70 | 3.8E-04 | 8.8E-03 |       7.9E-02  OK|
 | P-Mass               | 0.61 | 8.0E-05 | 1.2E-03 |  9.6  9.6E-02  OK|
 +----------------------+------+---------+---------+------------------+
 | H-Energy             | 0.48 | 1.8E-05 | 5.7E-04 |  5.6  2.8E-03  OK|
 +----------------------+------+---------+---------+------------------+
 | K-TurbKE             | 0.62 | 6.6E-04 | 1.4E-02 |  5.5  3.0E-03  OK|
 | O-TurbFreq           | 0.51 | 8.3E-04 | 1.9E-02 |  7.4  3.3E-03  OK|
 +----------------------+------+---------+---------+------------------+
 ----------------------------------------------------------------------
 COEFFICIENT LOOP ITERATION =    8              CPU SECONDS = 4.901E+01
 ----------------------------------------------------------------------
 |       Equation       | Rate | RMS Res | Max Res |  Linear Solution |
 +----------------------+------+---------+---------+------------------+
 | U-Mom                | 0.56 | 8.1E-05 | 3.4E-03 |       1.4E-01  ok|
 | V-Mom                | 0.50 | 2.4E-04 | 6.8E-03 |       1.0E-01  ok|
 | W-Mom                | 0.43 | 1.7E-04 | 2.4E-03 |       1.2E-01  ok|
 | P-Mass               | 0.66 | 5.3E-05 | 8.0E-04 |  9.6  9.4E-02  OK|
 +----------------------+------+---------+---------+------------------+
 | H-Energy             | 0.63 | 1.1E-05 | 3.4E-04 |  5.6  3.1E-03  OK|
 +----------------------+------+---------+---------+------------------+
 | K-TurbKE             | 0.66 | 4.4E-04 | 8.2E-03 |  5.6  2.7E-03  OK|
 | O-TurbFreq           | 0.77 | 6.4E-04 | 1.8E-02 |  7.5  3.8E-03  OK|
 +----------------------+------+---------+---------+------------------+
 ----------------------------------------------------------------------
 COEFFICIENT LOOP ITERATION =    9              CPU SECONDS = 5.123E+01
 ----------------------------------------------------------------------
 |       Equation       | Rate | RMS Res | Max Res |  Linear Solution |
 +----------------------+------+---------+---------+------------------+
 | U-Mom                | 0.77 | 6.2E-05 | 2.5E-03 |       1.4E-01  ok|
 | V-Mom                | 0.60 | 1.4E-04 | 3.4E-03 |       1.0E-01  ok|
 | W-Mom                | 0.63 | 1.1E-04 | 3.6E-03 |       1.3E-01  ok|
 | P-Mass               | 0.68 | 3.6E-05 | 5.8E-04 |  9.6  9.2E-02  OK|
 +----------------------+------+---------+---------+------------------+
 | H-Energy             | 0.55 | 6.2E-06 | 2.4E-04 |  5.5  2.6E-03  OK|
 +----------------------+------+---------+---------+------------------+
 | K-TurbKE             | 0.70 | 3.1E-04 | 6.6E-03 |  5.5  2.9E-03  OK|
 | O-TurbFreq           | 0.86 | 5.5E-04 | 1.7E-02 |  7.4  2.8E-03  OK|
 +----------------------+------+---------+---------+------------------+
 ----------------------------------------------------------------------
 COEFFICIENT LOOP ITERATION =   10              CPU SECONDS = 5.335E+01
 ----------------------------------------------------------------------
 |       Equation       | Rate | RMS Res | Max Res |  Linear Solution |
 +----------------------+------+---------+---------+------------------+
 | U-Mom                | 0.64 | 4.0E-05 | 1.7E-03 |       1.5E-01  ok|
 | V-Mom                | 0.65 | 9.3E-05 | 2.5E-03 |       1.1E-01  ok|
 | W-Mom                | 0.68 | 7.1E-05 | 3.1E-03 |       1.4E-01  ok|
 | P-Mass               | 0.70 | 2.5E-05 | 4.2E-04 |  9.6  9.0E-02  OK|
 +----------------------+------+---------+---------+------------------+
 | H-Energy             | 0.70 | 4.4E-06 | 2.4E-04 |  5.5  3.0E-03  OK|
 +----------------------+------+---------+---------+------------------+
 | K-TurbKE             | 0.76 | 2.3E-04 | 6.7E-03 |  5.6  3.8E-03  OK|
 | O-TurbFreq           | 0.66 | 3.7E-04 | 1.1E-02 |  7.4  2.5E-03  OK|
 +----------------------+------+---------+---------+------------------+


 ======================================================================
 |                      Timestepping Information                      |
 ----------------------------------------------------------------------
 |       Timestep       |  RMS Courant Number  |  Max Courant Number  |
 +----------------------+----------------------+----------------------+
 |      1.0000E-01      |          3.76        |         23.28        |
 ----------------------------------------------------------------------

 ======================================================================
 TIME STEP =     2 SIMULATION TIME = 2.0000E-01 CPU SECONDS = 5.565E+01
 ----------------------------------------------------------------------
 | SOLVING : Wall Scale                                               |
 ----------------------------------------------------------------------
 |       Equation       | Rate | RMS Res | Max Res |  Linear Solution |
 +----------------------+------+---------+---------+------------------+
 | Wallscale            | 0.01 | 2.9E-05 | 3.7E-04 | 19.4  6.5E-02  OK|
 +----------------------+------+---------+---------+------------------+
 ----------------------------------------------------------------------
 COEFFICIENT LOOP ITERATION =    1              CPU SECONDS = 5.591E+01
 ----------------------------------------------------------------------
 |       Equation       | Rate | RMS Res | Max Res |  Linear Solution |
 +----------------------+------+---------+---------+------------------+
 | U-Mom                | 0.00 | 4.0E-03 | 9.7E-02 |       3.6E-02  OK|
 | V-Mom                | 0.63 | 1.7E-02 | 1.7E-01 |       1.2E-02  OK|
 | W-Mom                | 0.00 | 1.4E-02 | 3.6E-01 |       6.4E-03  OK|
 | P-Mass               | 3.76 | 3.5E-03 | 1.2E-01 |  9.6  8.6E-02  OK|
 +----------------------+------+---------+---------+------------------+
 | H-Energy             | 0.45 | 1.7E-02 | 2.0E-01 |  5.6  2.1E-03  OK|
 +----------------------+------+---------+---------+------------------+
 | K-TurbKE             | 0.32 | 1.9E-02 | 1.8E-01 |  5.6  5.3E-03  OK|
 | O-TurbFreq           | 0.38 | 2.2E-02 | 4.0E-01 |  7.4  4.3E-03  OK|
 +----------------------+------+---------+---------+------------------+
 ----------------------------------------------------------------------
 COEFFICIENT LOOP ITERATION =    2              CPU SECONDS = 5.806E+01
 ----------------------------------------------------------------------
 |       Equation       | Rate | RMS Res | Max Res |  Linear Solution |
 +----------------------+------+---------+---------+------------------+
 | U-Mom                | 0.44 | 1.8E-03 | 4.6E-02 |       4.1E-02  OK|
 | V-Mom                | 0.28 | 4.7E-03 | 6.6E-02 |       1.5E-02  OK|
 | W-Mom                | 0.25 | 3.4E-03 | 9.0E-02 |       1.9E-02  OK|
 | P-Mass               | 0.37 | 1.3E-03 | 3.1E-02 | 13.9  7.3E-02  OK|
 +----------------------+------+---------+---------+------------------+
 | H-Energy             | 0.04 | 6.9E-04 | 2.0E-02 |  5.6  2.5E-03  OK|
 +----------------------+------+---------+---------+------------------+
 | K-TurbKE             | 0.50 | 9.5E-03 | 7.8E-02 |  5.6  1.0E-02  OK|
 | O-TurbFreq           | 0.36 | 8.0E-03 | 2.2E-01 |  7.4  8.3E-03  OK|
 +----------------------+------+---------+---------+------------------+
 ----------------------------------------------------------------------
 COEFFICIENT LOOP ITERATION =    3              CPU SECONDS = 6.022E+01
 ----------------------------------------------------------------------
 |       Equation       | Rate | RMS Res | Max Res |  Linear Solution |
 +----------------------+------+---------+---------+------------------+
 | U-Mom                | 0.46 | 8.2E-04 | 1.4E-02 |       4.8E-02  OK|
 | V-Mom                | 0.57 | 2.7E-03 | 3.9E-02 |       2.6E-02  OK|
 | W-Mom                | 0.66 | 2.2E-03 | 4.8E-02 |       2.0E-02  OK|
 | P-Mass               | 0.62 | 8.2E-04 | 1.9E-02 | 13.9  7.2E-02  OK|
 +----------------------+------+---------+---------+------------------+
 | H-Energy             | 0.29 | 2.0E-04 | 3.8E-03 |  5.5  1.4E-03  OK|
 +----------------------+------+---------+---------+------------------+
 | K-TurbKE             | 0.97 | 9.2E-03 | 1.1E-01 |  5.5  1.6E-02  OK|
 | O-TurbFreq           | 0.45 | 3.6E-03 | 9.4E-02 |  7.4  6.9E-03  OK|
 +----------------------+------+---------+---------+------------------+
 ----------------------------------------------------------------------
 COEFFICIENT LOOP ITERATION =    4              CPU SECONDS = 6.256E+01
 ----------------------------------------------------------------------
 |       Equation       | Rate | RMS Res | Max Res |  Linear Solution |
 +----------------------+------+---------+---------+------------------+
 | U-Mom                | 0.44 | 3.7E-04 | 9.5E-03 |       1.2E-01  ok|
 | V-Mom                | 0.42 | 1.1E-03 | 2.6E-02 |       5.8E-02  OK|
 | W-Mom                | 0.40 | 8.8E-04 | 2.5E-02 |       6.8E-02  OK|
 | P-Mass               | 0.74 | 6.1E-04 | 1.1E-02 | 13.9  7.5E-02  OK|
 +----------------------+------+---------+---------+------------------+
 | H-Energy             | 0.55 | 1.1E-04 | 2.0E-03 |  5.6  1.7E-03  OK|
 +----------------------+------+---------+---------+------------------+
 | K-TurbKE             | 0.96 | 8.8E-03 | 1.7E-01 |  5.5  1.8E-02  OK|
 | O-TurbFreq           | 0.69 | 2.5E-03 | 4.0E-02 |  7.4  5.8E-03  OK|
 +----------------------+------+---------+---------+------------------+
 ----------------------------------------------------------------------
 COEFFICIENT LOOP ITERATION =    5              CPU SECONDS = 6.474E+01
 ----------------------------------------------------------------------
 |       Equation       | Rate | RMS Res | Max Res |  Linear Solution |
 +----------------------+------+---------+---------+------------------+
 | U-Mom                | 0.57 | 2.1E-04 | 5.3E-03 |       1.2E-01  ok|
 | V-Mom                | 0.67 | 7.7E-04 | 1.6E-02 |       6.5E-02  OK|
 | W-Mom                | 0.65 | 5.8E-04 | 1.3E-02 |       7.1E-02  OK|
 | P-Mass               | 0.61 | 3.7E-04 | 5.6E-03 | 13.9  8.0E-02  OK|
 +----------------------+------+---------+---------+------------------+
 | H-Energy             | 0.48 | 5.2E-05 | 9.0E-04 |  5.6  1.5E-03  OK|
 +----------------------+------+---------+---------+------------------+
 | K-TurbKE             | 0.95 | 8.4E-03 | 1.6E-01 |  5.6  1.9E-02  OK|
 | O-TurbFreq           | 0.90 | 2.2E-03 | 5.7E-02 |  7.4  6.9E-03  OK|
 +----------------------+------+---------+---------+------------------+
 ----------------------------------------------------------------------
 COEFFICIENT LOOP ITERATION =    6              CPU SECONDS = 6.707E+01
 ----------------------------------------------------------------------
 |       Equation       | Rate | RMS Res | Max Res |  Linear Solution |
 +----------------------+------+---------+---------+------------------+
 | U-Mom                | 0.65 | 1.4E-04 | 4.7E-03 |       1.2E-01  ok|
 | V-Mom                | 0.58 | 4.4E-04 | 1.1E-02 |       7.5E-02  OK|
 | W-Mom                | 0.57 | 3.3E-04 | 8.0E-03 |       9.2E-02  OK|
 | P-Mass               | 0.66 | 2.5E-04 | 3.0E-03 | 13.9  8.5E-02  OK|
 +----------------------+------+---------+---------+------------------+
 | H-Energy             | 0.60 | 3.1E-05 | 6.7E-04 |  5.5  1.5E-03  OK|
 +----------------------+------+---------+---------+------------------+
 | K-TurbKE             | 0.94 | 7.8E-03 | 1.8E-01 |  5.5  1.8E-02  OK|
 | O-TurbFreq           | 0.74 | 1.6E-03 | 4.2E-02 |  7.4  7.5E-03  OK|
 +----------------------+------+---------+---------+------------------+
 ----------------------------------------------------------------------
 COEFFICIENT LOOP ITERATION =    7              CPU SECONDS = 6.933E+01
 ----------------------------------------------------------------------
 |       Equation       | Rate | RMS Res | Max Res |  Linear Solution |
 +----------------------+------+---------+---------+------------------+
 | U-Mom                | 0.72 | 9.9E-05 | 4.2E-03 |       1.3E-01  ok|
 | V-Mom                | 0.65 | 2.9E-04 | 6.7E-03 |       8.2E-02  OK|
 | W-Mom                | 0.69 | 2.3E-04 | 5.3E-03 |       1.1E-01  ok|
 | P-Mass               | 0.62 | 1.5E-04 | 1.8E-03 | 13.9  8.9E-02  OK|
 +----------------------+------+---------+---------+------------------+
 | H-Energy             | 0.61 | 1.9E-05 | 5.5E-04 |  5.5  1.4E-03  OK|
 +----------------------+------+---------+---------+------------------+
 | K-TurbKE             | 0.79 | 6.2E-03 | 1.7E-01 |  5.5  1.5E-02  OK|
 | O-TurbFreq           | 0.71 | 1.2E-03 | 3.6E-02 |  7.4  6.6E-03  OK|
 +----------------------+------+---------+---------+------------------+
 ----------------------------------------------------------------------
 COEFFICIENT LOOP ITERATION =    8              CPU SECONDS = 7.177E+01
 ----------------------------------------------------------------------
 |       Equation       | Rate | RMS Res | Max Res |  Linear Solution |
 +----------------------+------+---------+---------+------------------+
 | U-Mom                | 0.73 | 7.2E-05 | 3.3E-03 |       1.2E-01  ok|
 | V-Mom                | 0.67 | 1.9E-04 | 4.8E-03 |       8.8E-02  OK|
 | W-Mom                | 0.68 | 1.6E-04 | 4.0E-03 |       1.3E-01  ok|
 | P-Mass               | 0.66 | 1.0E-04 | 1.3E-03 | 13.9  9.2E-02  OK|
 +----------------------+------+---------+---------+------------------+
 | H-Energy             | 0.65 | 1.2E-05 | 3.7E-04 |  5.5  1.5E-03  OK|
 +----------------------+------+---------+---------+------------------+
 | K-TurbKE             | 0.78 | 4.8E-03 | 1.5E-01 |  5.5  1.4E-02  OK|
 | O-TurbFreq           | 0.67 | 7.8E-04 | 2.4E-02 |  7.4  6.1E-03  OK|
 +----------------------+------+---------+---------+------------------+
 ----------------------------------------------------------------------
 COEFFICIENT LOOP ITERATION =    9              CPU SECONDS = 7.409E+01
 ----------------------------------------------------------------------
 |       Equation       | Rate | RMS Res | Max Res |  Linear Solution |
 +----------------------+------+---------+---------+------------------+
 | U-Mom                | 0.73 | 5.3E-05 | 2.5E-03 |       1.3E-01  ok|
 | V-Mom                | 0.70 | 1.3E-04 | 3.4E-03 |       9.3E-02  OK|
 | W-Mom                | 0.70 | 1.1E-04 | 2.7E-03 |       1.4E-01  ok|
 | P-Mass               | 0.67 | 6.9E-05 | 1.0E-03 | 13.9  9.4E-02  OK|
 +----------------------+------+---------+---------+------------------+
 | H-Energy             | 0.67 | 8.3E-06 | 3.5E-04 |  5.5  1.5E-03  OK|
 +----------------------+------+---------+---------+------------------+
 | K-TurbKE             | 0.76 | 3.6E-03 | 1.3E-01 |  5.5  1.2E-02  OK|
 | O-TurbFreq           | 0.68 | 5.3E-04 | 1.9E-02 |  7.4  5.4E-03  OK|
 +----------------------+------+---------+---------+------------------+
 ----------------------------------------------------------------------
 COEFFICIENT LOOP ITERATION =   10              CPU SECONDS = 7.626E+01
 ----------------------------------------------------------------------
 |       Equation       | Rate | RMS Res | Max Res |  Linear Solution |
 +----------------------+------+---------+---------+------------------+
 | U-Mom                | 0.72 | 3.8E-05 | 1.8E-03 |       1.3E-01  ok|
 | V-Mom                | 0.71 | 9.5E-05 | 2.7E-03 |       9.9E-02  OK|
 | W-Mom                | 0.70 | 7.6E-05 | 2.0E-03 |       1.6E-01  ok|
 | P-Mass               | 0.69 | 4.8E-05 | 7.7E-04 | 13.9  9.7E-02  OK|
 +----------------------+------+---------+---------+------------------+
 | H-Energy             | 0.70 | 5.8E-06 | 2.5E-04 |  5.6  1.7E-03  OK|
 +----------------------+------+---------+---------+------------------+
 | K-TurbKE             | 0.76 | 2.8E-03 | 1.0E-01 |  5.5  1.1E-02  OK|
 | O-TurbFreq           | 0.71 | 3.8E-04 | 1.4E-02 |  7.4  4.8E-03  OK|
 +----------------------+------+---------+---------+------------------+


 ======================================================================
 |                      Timestepping Information                      |
 ----------------------------------------------------------------------
 |       Timestep       |  RMS Courant Number  |  Max Courant Number  |
 +----------------------+----------------------+----------------------+
 |      1.0000E-01      |          3.64        |         19.55        |
 ----------------------------------------------------------------------

 ======================================================================
 TIME STEP =     3 SIMULATION TIME = 3.0000E-01 CPU SECONDS = 7.867E+01
 ----------------------------------------------------------------------
 COEFFICIENT LOOP ITERATION =    1              CPU SECONDS = 7.867E+01
 ----------------------------------------------------------------------
 |       Equation       | Rate | RMS Res | Max Res |  Linear Solution |
 +----------------------+------+---------+---------+------------------+
 | U-Mom                | 1.26 | 5.1E-03 | 4.1E-02 |       1.1E-03  OK|
 | V-Mom                | 0.80 | 1.4E-02 | 5.0E-02 |       5.4E-04  OK|
 | W-Mom                | 0.76 | 1.1E-02 | 6.3E-02 |       3.3E-04  OK|
 | P-Mass               | 0.09 | 3.1E-04 | 5.3E-03 | 26.8  8.8E-02  OK|
 +----------------------+------+---------+---------+------------------+
 | H-Energy             | 0.91 | 1.6E-02 | 1.3E-01 |  5.5  2.6E-03  OK|
 +----------------------+------+---------+---------+------------------+
 | K-TurbKE             | 0.78 | 1.5E-02 | 2.3E-01 |  5.5  4.0E-03  OK|
 | O-TurbFreq           | 0.70 | 1.5E-02 | 1.7E-01 |  7.5  4.1E-03  OK|
 +----------------------+------+---------+---------+------------------+
 ----------------------------------------------------------------------
 COEFFICIENT LOOP ITERATION =    2              CPU SECONDS = 8.131E+01
 ----------------------------------------------------------------------
 |       Equation       | Rate | RMS Res | Max Res |  Linear Solution |
 +----------------------+------+---------+---------+------------------+
 | U-Mom                | 0.16 | 8.3E-04 | 1.9E-02 |       1.0E-01  ok|
 | V-Mom                | 0.16 | 2.2E-03 | 2.7E-02 |       4.0E-02  OK|
 | W-Mom                | 0.13 | 1.4E-03 | 2.0E-02 |       5.9E-02  OK|
 | P-Mass               | 2.14 | 6.6E-04 | 1.8E-02 |  9.6  8.5E-02  OK|
 +----------------------+------+---------+---------+------------------+
 | H-Energy             | 0.04 | 6.5E-04 | 1.5E-02 |  5.5  2.2E-03  OK|
 +----------------------+------+---------+---------+------------------+
 | K-TurbKE             | 0.72 | 1.1E-02 | 2.2E-01 |  5.5  8.5E-03  OK|
 | O-TurbFreq           | 0.28 | 4.4E-03 | 6.4E-02 |  7.4  5.2E-03  OK|
 +----------------------+------+---------+---------+------------------+
 ----------------------------------------------------------------------
 COEFFICIENT LOOP ITERATION =    3              CPU SECONDS = 8.341E+01
 ----------------------------------------------------------------------
 |       Equation       | Rate | RMS Res | Max Res |  Linear Solution |
 +----------------------+------+---------+---------+------------------+
 | U-Mom                | 0.55 | 4.6E-04 | 1.3E-02 |       9.7E-02  OK|
 | V-Mom                | 0.69 | 1.5E-03 | 2.4E-02 |       5.3E-02  OK|
 | W-Mom                | 0.76 | 1.1E-03 | 2.6E-02 |       3.8E-02  OK|
 | P-Mass               | 0.57 | 3.7E-04 | 8.9E-03 |  9.6  9.6E-02  OK|
 +----------------------+------+---------+---------+------------------+
 | H-Energy             | 0.27 | 1.7E-04 | 5.9E-03 |  5.5  2.6E-03  OK|
 +----------------------+------+---------+---------+------------------+
 | K-TurbKE             | 0.69 | 7.4E-03 | 1.7E-01 |  5.6  8.8E-03  OK|
 | O-TurbFreq           | 0.60 | 2.6E-03 | 4.3E-02 |  7.5  2.9E-03  OK|
 +----------------------+------+---------+---------+------------------+
 ----------------------------------------------------------------------
 COEFFICIENT LOOP ITERATION =    4              CPU SECONDS = 8.556E+01
 ----------------------------------------------------------------------
 |       Equation       | Rate | RMS Res | Max Res |  Linear Solution |
 +----------------------+------+---------+---------+------------------+
 | U-Mom                | 0.39 | 1.8E-04 | 7.2E-03 |       9.0E-02  OK|
 | V-Mom                | 0.49 | 7.3E-04 | 1.7E-02 |       4.7E-02  OK|
 | W-Mom                | 0.52 | 5.6E-04 | 1.6E-02 |       3.8E-02  OK|
 | P-Mass               | 0.62 | 2.3E-04 | 4.7E-03 | 13.9  7.0E-02  OK|
 +----------------------+------+---------+---------+------------------+
 | H-Energy             | 0.66 | 1.2E-04 | 5.7E-03 |  5.5  3.0E-03  OK|
 +----------------------+------+---------+---------+------------------+
 | K-TurbKE             | 0.70 | 5.2E-03 | 1.1E-01 |  5.5  1.0E-02  OK|
 | O-TurbFreq           | 0.89 | 2.3E-03 | 4.9E-02 |  7.4  3.1E-03  OK|
 +----------------------+------+---------+---------+------------------+
 ----------------------------------------------------------------------
 COEFFICIENT LOOP ITERATION =    5              CPU SECONDS = 8.772E+01
 ----------------------------------------------------------------------
 |       Equation       | Rate | RMS Res | Max Res |  Linear Solution |
 +----------------------+------+---------+---------+------------------+
 | U-Mom                | 0.69 | 1.2E-04 | 4.7E-03 |       7.1E-02  OK|
 | V-Mom                | 0.66 | 4.9E-04 | 1.6E-02 |       3.9E-02  OK|
 | W-Mom                | 0.69 | 3.9E-04 | 1.3E-02 |       3.1E-02  OK|
 | P-Mass               | 0.67 | 1.6E-04 | 2.8E-03 | 13.9  7.0E-02  OK|
 +----------------------+------+---------+---------+------------------+
 | H-Energy             | 0.61 | 7.1E-05 | 3.5E-03 |  5.5  2.3E-03  OK|
 +----------------------+------+---------+---------+------------------+
 | K-TurbKE             | 0.71 | 3.7E-03 | 8.3E-02 |  5.6  9.7E-03  OK|
 | O-TurbFreq           | 0.79 | 1.8E-03 | 4.8E-02 |  7.5  2.7E-03  OK|
 +----------------------+------+---------+---------+------------------+
 ----------------------------------------------------------------------
 COEFFICIENT LOOP ITERATION =    6              CPU SECONDS = 8.998E+01
 ----------------------------------------------------------------------
 |       Equation       | Rate | RMS Res | Max Res |  Linear Solution |
 +----------------------+------+---------+---------+------------------+
 | U-Mom                | 0.63 | 7.8E-05 | 3.3E-03 |       1.4E-01  ok|
 | V-Mom                | 0.70 | 3.4E-04 | 1.3E-02 |       6.4E-02  OK|
 | W-Mom                | 0.67 | 2.6E-04 | 9.9E-03 |       7.6E-02  OK|
 | P-Mass               | 0.69 | 1.1E-04 | 1.6E-03 | 13.9  6.9E-02  OK|
 +----------------------+------+---------+---------+------------------+
 | H-Energy             | 0.56 | 4.0E-05 | 2.5E-03 |  5.5  2.3E-03  OK|
 +----------------------+------+---------+---------+------------------+
 | K-TurbKE             | 0.74 | 2.7E-03 | 6.1E-02 |  5.5  9.3E-03  OK|
 | O-TurbFreq           | 0.64 | 1.2E-03 | 4.0E-02 |  7.5  3.2E-03  OK|
 +----------------------+------+---------+---------+------------------+
 ----------------------------------------------------------------------
 COEFFICIENT LOOP ITERATION =    7              CPU SECONDS = 9.216E+01
 ----------------------------------------------------------------------
 |       Equation       | Rate | RMS Res | Max Res |  Linear Solution |
 +----------------------+------+---------+---------+------------------+
 | U-Mom                | 0.64 | 5.0E-05 | 1.8E-03 |       1.4E-01  ok|
 | V-Mom                | 0.69 | 2.3E-04 | 1.1E-02 |       6.9E-02  OK|
 | W-Mom                | 0.66 | 1.7E-04 | 7.1E-03 |       8.0E-02  OK|
 | P-Mass               | 0.64 | 6.9E-05 | 9.4E-04 | 13.9  7.2E-02  OK|
 +----------------------+------+---------+---------+------------------+
 | H-Energy             | 0.68 | 2.7E-05 | 1.6E-03 |  5.6  2.1E-03  OK|
 +----------------------+------+---------+---------+------------------+
 | K-TurbKE             | 0.73 | 2.0E-03 | 4.6E-02 |  5.5  8.4E-03  OK|
 | O-TurbFreq           | 0.63 | 7.4E-04 | 2.8E-02 |  7.5  2.7E-03  OK|
 +----------------------+------+---------+---------+------------------+
 ----------------------------------------------------------------------
 COEFFICIENT LOOP ITERATION =    8              CPU SECONDS = 9.436E+01
 ----------------------------------------------------------------------
 |       Equation       | Rate | RMS Res | Max Res |  Linear Solution |
 +----------------------+------+---------+---------+------------------+
 | U-Mom                | 0.68 | 3.4E-05 | 1.1E-03 |       1.4E-01  ok|
 | V-Mom                | 0.70 | 1.6E-04 | 8.2E-03 |       7.6E-02  OK|
 | W-Mom                | 0.68 | 1.1E-04 | 5.1E-03 |       9.2E-02  OK|
 | P-Mass               | 0.66 | 4.5E-05 | 5.7E-04 | 13.9  7.5E-02  OK|
 +----------------------+------+---------+---------+------------------+
 | H-Energy             | 0.68 | 1.8E-05 | 1.1E-03 |  5.5  2.1E-03  OK|
 +----------------------+------+---------+---------+------------------+
 | K-TurbKE             | 0.70 | 1.4E-03 | 3.2E-02 |  5.5  7.9E-03  OK|
 | O-TurbFreq           | 0.65 | 4.8E-04 | 1.9E-02 |  7.4  2.5E-03  OK|
 +----------------------+------+---------+---------+------------------+
 ----------------------------------------------------------------------
 COEFFICIENT LOOP ITERATION =    9              CPU SECONDS = 9.650E+01
 ----------------------------------------------------------------------
 |       Equation       | Rate | RMS Res | Max Res |  Linear Solution |
 +----------------------+------+---------+---------+------------------+
 | U-Mom                | 0.69 | 2.3E-05 | 8.5E-04 |       1.4E-01  ok|
 | V-Mom                | 0.70 | 1.2E-04 | 6.0E-03 |       8.3E-02  OK|
 | W-Mom                | 0.68 | 7.8E-05 | 3.7E-03 |       1.0E-01  ok|
 | P-Mass               | 0.67 | 3.0E-05 | 4.4E-04 | 13.9  7.7E-02  OK|
 +----------------------+------+---------+---------+------------------+
 | H-Energy             | 0.71 | 1.3E-05 | 8.5E-04 |  5.5  2.0E-03  OK|
 +----------------------+------+---------+---------+------------------+
 | K-TurbKE             | 0.69 | 9.7E-04 | 2.4E-02 |  5.5  7.4E-03  OK|
 | O-TurbFreq           | 0.67 | 3.2E-04 | 1.3E-02 |  7.4  2.2E-03  OK|
 +----------------------+------+---------+---------+------------------+
 ----------------------------------------------------------------------
 COEFFICIENT LOOP ITERATION =   10              CPU SECONDS = 9.872E+01
 ----------------------------------------------------------------------
 |       Equation       | Rate | RMS Res | Max Res |  Linear Solution |
 +----------------------+------+---------+---------+------------------+
 | U-Mom                | 0.69 | 1.6E-05 | 6.5E-04 |       1.5E-01  ok|
 | V-Mom                | 0.71 | 8.2E-05 | 4.4E-03 |       9.0E-02  OK|
 | W-Mom                | 0.69 | 5.4E-05 | 2.7E-03 |       1.1E-01  ok|
 | P-Mass               | 0.69 | 2.1E-05 | 3.3E-04 | 13.9  7.9E-02  OK|
 +----------------------+------+---------+---------+------------------+
 | H-Energy             | 0.71 | 9.2E-06 | 6.5E-04 |  5.5  1.9E-03  OK|
 +----------------------+------+---------+---------+------------------+
 | K-TurbKE             | 0.69 | 6.7E-04 | 1.7E-02 |  5.6  7.1E-03  OK|
 | O-TurbFreq           | 0.69 | 2.2E-04 | 9.0E-03 |  7.5  2.0E-03  OK|
 +----------------------+------+---------+---------+------------------+


 ======================================================================
 |                      Timestepping Information                      |
 ----------------------------------------------------------------------
 |       Timestep       |  RMS Courant Number  |  Max Courant Number  |
 +----------------------+----------------------+----------------------+
 |      1.0000E-01      |          3.57        |         19.62        |
 ----------------------------------------------------------------------

 ======================================================================
 TIME STEP =     4 SIMULATION TIME = 4.0000E-01 CPU SECONDS = 1.012E+02
 ----------------------------------------------------------------------
 COEFFICIENT LOOP ITERATION =    1              CPU SECONDS = 1.012E+02
 ----------------------------------------------------------------------
 |       Equation       | Rate | RMS Res | Max Res |  Linear Solution |
 +----------------------+------+---------+---------+------------------+
 | U-Mom                | 0.24 | 1.2E-03 | 2.6E-02 |       1.9E-03  OK|
 | V-Mom                | 0.11 | 1.5E-03 | 2.8E-02 |       1.8E-03  OK|
 | W-Mom                | 0.15 | 1.6E-03 | 2.6E-02 |       1.5E-03  OK|
 | P-Mass               | 0.41 | 1.2E-04 | 2.0E-03 | 18.2  7.7E-02  OK|
 +----------------------+------+---------+---------+------------------+
 | H-Energy             | 0.98 | 1.5E-02 | 8.7E-02 |  5.6  4.0E-03  OK|
 +----------------------+------+---------+---------+------------------+
 | K-TurbKE             | 0.92 | 1.4E-02 | 2.1E-01 |  5.6  3.7E-03  OK|
 | O-TurbFreq           | 0.61 | 9.4E-03 | 2.1E-01 |  7.5  3.5E-03  OK|
 +----------------------+------+---------+---------+------------------+
 ----------------------------------------------------------------------
 COEFFICIENT LOOP ITERATION =    2              CPU SECONDS = 1.036E+02
 ----------------------------------------------------------------------
 |       Equation       | Rate | RMS Res | Max Res |  Linear Solution |
 +----------------------+------+---------+---------+------------------+
 | U-Mom                | 0.39 | 4.7E-04 | 1.1E-02 |       1.1E-02  OK|
 | V-Mom                | 0.94 | 1.4E-03 | 3.2E-02 |       3.1E-03  OK|
 | W-Mom                | 0.53 | 8.6E-04 | 2.2E-02 |       1.5E-02  OK|
 | P-Mass               | 0.47 | 5.8E-05 | 9.7E-04 | 13.9  9.8E-02  OK|
 +----------------------+------+---------+---------+------------------+
 | H-Energy             | 0.01 | 1.7E-04 | 8.1E-03 |  5.5  1.9E-03  OK|
 +----------------------+------+---------+---------+------------------+
 | K-TurbKE             | 0.49 | 6.7E-03 | 1.6E-01 |  5.5  4.4E-03  OK|
 | O-TurbFreq           | 0.31 | 3.0E-03 | 7.5E-02 |  7.5  2.1E-03  OK|
 +----------------------+------+---------+---------+------------------+
 ----------------------------------------------------------------------
 COEFFICIENT LOOP ITERATION =    3              CPU SECONDS = 1.059E+02
 ----------------------------------------------------------------------
 |       Equation       | Rate | RMS Res | Max Res |  Linear Solution |
 +----------------------+------+---------+---------+------------------+
 | U-Mom                | 0.31 | 1.5E-04 | 4.8E-03 |       5.0E-02  OK|
 | V-Mom                | 0.35 | 4.9E-04 | 1.6E-02 |       3.1E-02  OK|
 | W-Mom                | 0.39 | 3.4E-04 | 9.8E-03 |       6.5E-02  OK|
 | P-Mass               | 1.03 | 6.0E-05 | 1.1E-03 |  9.6  9.8E-02  OK|
 +----------------------+------+---------+---------+------------------+
 | H-Energy             | 0.48 | 8.1E-05 | 4.2E-03 |  5.5  9.1E-04  OK|
 +----------------------+------+---------+---------+------------------+
 | K-TurbKE             | 0.67 | 4.5E-03 | 1.2E-01 |  5.6  5.8E-03  OK|
 | O-TurbFreq           | 0.49 | 1.4E-03 | 2.4E-02 |  7.5  1.5E-03  OK|
 +----------------------+------+---------+---------+------------------+
 ----------------------------------------------------------------------
 COEFFICIENT LOOP ITERATION =    4              CPU SECONDS = 1.080E+02
 ----------------------------------------------------------------------
 |       Equation       | Rate | RMS Res | Max Res |  Linear Solution |
 +----------------------+------+---------+---------+------------------+
 | U-Mom                | 0.46 | 6.8E-05 | 3.3E-03 |       8.6E-02  OK|
 | V-Mom                | 0.59 | 2.9E-04 | 1.2E-02 |       4.4E-02  OK|
 | W-Mom                | 0.57 | 1.9E-04 | 7.7E-03 |       9.1E-02  OK|
 | P-Mass               | 0.66 | 4.0E-05 | 9.2E-04 | 13.9  7.9E-02  OK|
 +----------------------+------+---------+---------+------------------+
 | H-Energy             | 0.46 | 3.7E-05 | 2.0E-03 |  5.5  1.1E-03  OK|
 +----------------------+------+---------+---------+------------------+
 | K-TurbKE             | 0.56 | 2.5E-03 | 6.7E-02 |  5.5  7.1E-03  OK|
 | O-TurbFreq           | 0.67 | 9.7E-04 | 1.5E-02 |  7.5  1.6E-03  OK|
 +----------------------+------+---------+---------+------------------+
 ----------------------------------------------------------------------
 COEFFICIENT LOOP ITERATION =    5              CPU SECONDS = 1.103E+02
 ----------------------------------------------------------------------
 |       Equation       | Rate | RMS Res | Max Res |  Linear Solution |
 +----------------------+------+---------+---------+------------------+
 | U-Mom                | 0.54 | 3.7E-05 | 2.1E-03 |       1.3E-01  ok|
 | V-Mom                | 0.60 | 1.7E-04 | 8.7E-03 |       6.2E-02  OK|
 | W-Mom                | 0.54 | 1.0E-04 | 5.1E-03 |       1.0E-01  ok|
 | P-Mass               | 0.66 | 2.6E-05 | 7.5E-04 | 13.9  8.9E-02  OK|
 +----------------------+------+---------+---------+------------------+
 | H-Energy             | 0.68 | 2.5E-05 | 1.9E-03 |  5.5  1.1E-03  OK|
 +----------------------+------+---------+---------+------------------+
 | K-TurbKE             | 0.57 | 1.4E-03 | 3.3E-02 |  5.5  7.5E-03  OK|
 | O-TurbFreq           | 0.69 | 6.7E-04 | 1.2E-02 |  7.5  2.0E-03  OK|
 +----------------------+------+---------+---------+------------------+
 ----------------------------------------------------------------------
 COEFFICIENT LOOP ITERATION =    6              CPU SECONDS = 1.126E+02
 ----------------------------------------------------------------------
 |       Equation       | Rate | RMS Res | Max Res |  Linear Solution |
 +----------------------+------+---------+---------+------------------+
 | U-Mom                | 0.63 | 2.3E-05 | 1.4E-03 |       1.6E-01  ok|
 | V-Mom                | 0.64 | 1.1E-04 | 6.6E-03 |       8.1E-02  OK|
 | W-Mom                | 0.61 | 6.4E-05 | 3.4E-03 |       1.6E-01  ok|
 | P-Mass               | 0.70 | 1.8E-05 | 5.8E-04 | 13.9  9.6E-02  OK|
 +----------------------+------+---------+---------+------------------+
 | H-Energy             | 0.65 | 1.6E-05 | 1.4E-03 |  5.5  1.2E-03  OK|
 +----------------------+------+---------+---------+------------------+
 | K-TurbKE             | 0.58 | 8.3E-04 | 1.6E-02 |  5.6  7.0E-03  OK|
 | O-TurbFreq           | 0.69 | 4.6E-04 | 8.2E-03 |  7.5  2.2E-03  OK|
 +----------------------+------+---------+---------+------------------+
 ----------------------------------------------------------------------
 COEFFICIENT LOOP ITERATION =    7              CPU SECONDS = 1.147E+02
 ----------------------------------------------------------------------
 |       Equation       | Rate | RMS Res | Max Res |  Linear Solution |
 +----------------------+------+---------+---------+------------------+
 | U-Mom                | 0.62 | 1.4E-05 | 9.1E-04 |       1.4E-01  ok|
 | V-Mom                | 0.66 | 7.4E-05 | 4.8E-03 |       6.7E-02  OK|
 | W-Mom                | 0.63 | 4.0E-05 | 2.2E-03 |       1.3E-01  ok|
 | P-Mass               | 0.73 | 1.3E-05 | 4.5E-04 | 18.2  6.8E-02  OK|
 +----------------------+------+---------+---------+------------------+
 | H-Energy             | 0.81 | 1.3E-05 | 1.2E-03 |  5.6  1.3E-03  OK|
 +----------------------+------+---------+---------+------------------+
 | K-TurbKE             | 0.65 | 5.4E-04 | 1.1E-02 |  5.5  5.8E-03  OK|
 | O-TurbFreq           | 0.72 | 3.3E-04 | 7.5E-03 |  7.5  2.1E-03  OK|
 +----------------------+------+---------+---------+------------------+


 ======================================================================
 |                      Timestepping Information                      |
 ----------------------------------------------------------------------
 |       Timestep       |  RMS Courant Number  |  Max Courant Number  |
 +----------------------+----------------------+----------------------+
 |      1.0000E-01      |          3.56        |         19.76        |
 ----------------------------------------------------------------------

 ======================================================================
 TIME STEP =     5 SIMULATION TIME = 5.0000E-01 CPU SECONDS = 1.172E+02
 ----------------------------------------------------------------------
 COEFFICIENT LOOP ITERATION =    1              CPU SECONDS = 1.172E+02
 ----------------------------------------------------------------------
 |       Equation       | Rate | RMS Res | Max Res |  Linear Solution |
 +----------------------+------+---------+---------+------------------+
 | U-Mom                | 0.78 | 9.4E-04 | 1.9E-02 |       1.2E-03  OK|
 | V-Mom                | 0.87 | 1.3E-03 | 2.6E-02 |       1.4E-03  OK|
 | W-Mom                | 0.77 | 1.2E-03 | 2.6E-02 |       1.1E-03  OK|
 | P-Mass               | 0.64 | 8.0E-05 | 2.4E-03 |  9.6  3.8E-02  OK|
 +----------------------+------+---------+---------+------------------+
 | H-Energy             | 0.97 | 1.5E-02 | 7.5E-02 |  5.6  3.9E-03  OK|
 +----------------------+------+---------+---------+------------------+
 | K-TurbKE             | 0.76 | 1.0E-02 | 1.5E-01 |  5.6  2.9E-03  OK|
 | O-TurbFreq           | 0.69 | 6.5E-03 | 1.3E-01 |  7.5  2.0E-03  OK|
 +----------------------+------+---------+---------+------------------+
 ----------------------------------------------------------------------
 COEFFICIENT LOOP ITERATION =    2              CPU SECONDS = 1.193E+02
 ----------------------------------------------------------------------
 |       Equation       | Rate | RMS Res | Max Res |  Linear Solution |
 +----------------------+------+---------+---------+------------------+
 | U-Mom                | 0.36 | 3.4E-04 | 1.3E-02 |       7.3E-03  OK|
 | V-Mom                | 0.75 | 9.8E-04 | 2.1E-02 |       2.6E-03  OK|
 | W-Mom                | 0.38 | 4.7E-04 | 1.2E-02 |       8.6E-03  OK|
 | P-Mass               | 0.47 | 3.8E-05 | 8.8E-04 |  9.6  6.3E-02  OK|
 +----------------------+------+---------+---------+------------------+
 | H-Energy             | 0.01 | 2.0E-04 | 1.0E-02 |  5.5  1.4E-03  OK|
 +----------------------+------+---------+---------+------------------+
 | K-TurbKE             | 0.42 | 4.3E-03 | 9.4E-02 |  5.5  3.6E-03  OK|
 | O-TurbFreq           | 0.38 | 2.5E-03 | 4.4E-02 |  7.5  9.4E-04  OK|
 +----------------------+------+---------+---------+------------------+
 ----------------------------------------------------------------------
 COEFFICIENT LOOP ITERATION =    3              CPU SECONDS = 1.215E+02
 ----------------------------------------------------------------------
 |       Equation       | Rate | RMS Res | Max Res |  Linear Solution |
 +----------------------+------+---------+---------+------------------+
 | U-Mom                | 0.47 | 1.6E-04 | 1.3E-02 |       6.7E-02  OK|
 | V-Mom                | 0.32 | 3.1E-04 | 9.6E-03 |       7.8E-02  OK|
 | W-Mom                | 0.42 | 2.0E-04 | 6.5E-03 |       8.9E-02  OK|
 | P-Mass               | 1.11 | 4.2E-05 | 9.2E-04 |  5.3  8.6E-02  OK|
 +----------------------+------+---------+---------+------------------+
 | H-Energy             | 0.42 | 8.6E-05 | 5.5E-03 |  5.6  1.3E-03  OK|
 +----------------------+------+---------+---------+------------------+
 | K-TurbKE             | 0.59 | 2.5E-03 | 5.7E-02 |  5.6  5.6E-03  OK|
 | O-TurbFreq           | 0.53 | 1.3E-03 | 2.1E-02 |  7.5  1.2E-03  OK|
 +----------------------+------+---------+---------+------------------+
 ----------------------------------------------------------------------
 COEFFICIENT LOOP ITERATION =    4              CPU SECONDS = 1.235E+02
 ----------------------------------------------------------------------
 |       Equation       | Rate | RMS Res | Max Res |  Linear Solution |
 +----------------------+------+---------+---------+------------------+
 | U-Mom                | 0.58 | 9.1E-05 | 8.3E-03 |       1.7E-01  ok|
 | V-Mom                | 0.56 | 1.7E-04 | 8.9E-03 |       1.5E-01  ok|
 | W-Mom                | 0.52 | 1.0E-04 | 3.5E-03 |       1.6E-01  ok|
 | P-Mass               | 0.69 | 2.9E-05 | 7.6E-04 |  5.3  9.0E-02  OK|
 +----------------------+------+---------+---------+------------------+
 | H-Energy             | 0.49 | 4.2E-05 | 2.7E-03 |  5.5  1.2E-03  OK|
 +----------------------+------+---------+---------+------------------+
 | K-TurbKE             | 0.54 | 1.4E-03 | 4.2E-02 |  5.5  5.8E-03  OK|
 | O-TurbFreq           | 0.68 | 8.8E-04 | 2.1E-02 |  7.5  1.4E-03  OK|
 +----------------------+------+---------+---------+------------------+
 ----------------------------------------------------------------------
 COEFFICIENT LOOP ITERATION =    5              CPU SECONDS = 1.256E+02
 ----------------------------------------------------------------------
 |       Equation       | Rate | RMS Res | Max Res |  Linear Solution |
 +----------------------+------+---------+---------+------------------+
 | U-Mom                | 0.63 | 5.7E-05 | 5.2E-03 |       7.9E-02  OK|
 | V-Mom                | 0.62 | 1.1E-04 | 6.7E-03 |       5.2E-02  OK|
 | W-Mom                | 0.56 | 5.7E-05 | 2.6E-03 |       7.5E-02  OK|
 | P-Mass               | 0.70 | 2.0E-05 | 6.0E-04 |  9.6  4.0E-02  OK|
 +----------------------+------+---------+---------+------------------+
 | H-Energy             | 0.67 | 2.8E-05 | 1.5E-03 |  5.5  2.2E-03  OK|
 +----------------------+------+---------+---------+------------------+
 | K-TurbKE             | 0.62 | 8.5E-04 | 2.9E-02 |  5.5  4.8E-03  OK|
 | O-TurbFreq           | 0.74 | 6.5E-04 | 1.6E-02 |  7.5  1.4E-03  OK|
 +----------------------+------+---------+---------+------------------+
 ----------------------------------------------------------------------
 COEFFICIENT LOOP ITERATION =    6              CPU SECONDS = 1.277E+02
 ----------------------------------------------------------------------
 |       Equation       | Rate | RMS Res | Max Res |  Linear Solution |
 +----------------------+------+---------+---------+------------------+
 | U-Mom                | 0.67 | 3.8E-05 | 3.3E-03 |       7.1E-02  OK|
 | V-Mom                | 0.63 | 6.8E-05 | 4.5E-03 |       4.9E-02  OK|
[...]
 TIME STEP =   298 SIMULATION TIME = 2.9800E+01 CPU SECONDS = 2.463E+03
 ----------------------------------------------------------------------
 COEFFICIENT LOOP ITERATION =    1              CPU SECONDS = 2.463E+03
 ----------------------------------------------------------------------
 |       Equation       | Rate | RMS Res | Max Res |  Linear Solution |
 +----------------------+------+---------+---------+------------------+
 | U-Mom                | 0.99 | 2.7E-06 | 2.5E-05 |       3.5E-03  OK|
 | V-Mom                | 0.99 | 2.8E-06 | 2.0E-05 |       3.1E-03  OK|
 | W-Mom                | 0.99 | 5.9E-07 | 9.8E-06 |       2.2E-02  OK|
 | P-Mass               | 0.99 | 3.7E-07 | 4.5E-06 | 18.2  5.4E-02  OK|
 +----------------------+------+---------+---------+------------------+
 | H-Energy             | 0.99 | 2.8E-05 | 1.2E-04 |  5.5  5.8E-04  OK|
 +----------------------+------+---------+---------+------------------+
 | K-TurbKE             | 0.99 | 3.7E-05 | 2.1E-04 |  5.5  2.0E-03  OK|
 | O-TurbFreq           | 0.99 | 1.1E-05 | 2.2E-04 |  7.5  6.7E-04  OK|
 +----------------------+------+---------+---------+------------------+


 ======================================================================
 |                      Timestepping Information                      |
 ----------------------------------------------------------------------
 |       Timestep       |  RMS Courant Number  |  Max Courant Number  |
 +----------------------+----------------------+----------------------+
 |      1.0000E-01      |          3.93        |         17.94        |
 ----------------------------------------------------------------------

 ======================================================================
 TIME STEP =   299 SIMULATION TIME = 2.9900E+01 CPU SECONDS = 2.465E+03
 ----------------------------------------------------------------------
 COEFFICIENT LOOP ITERATION =    1              CPU SECONDS = 2.465E+03
 ----------------------------------------------------------------------
 |       Equation       | Rate | RMS Res | Max Res |  Linear Solution |
 +----------------------+------+---------+---------+------------------+
 | U-Mom                | 0.99 | 2.6E-06 | 2.5E-05 |       3.5E-03  OK|
 | V-Mom                | 0.99 | 2.8E-06 | 2.0E-05 |       3.1E-03  OK|
 | W-Mom                | 0.99 | 5.8E-07 | 9.7E-06 |       2.2E-02  OK|
 | P-Mass               | 0.99 | 3.6E-07 | 4.4E-06 | 18.2  5.3E-02  OK|
 +----------------------+------+---------+---------+------------------+
 | H-Energy             | 0.99 | 2.8E-05 | 1.2E-04 |  5.5  5.8E-04  OK|
 +----------------------+------+---------+---------+------------------+
 | K-TurbKE             | 0.99 | 3.6E-05 | 2.0E-04 |  5.5  2.0E-03  OK|
 | O-TurbFreq           | 0.99 | 1.1E-05 | 2.2E-04 |  7.5  6.7E-04  OK|
 +----------------------+------+---------+---------+------------------+


 ======================================================================
 |                      Timestepping Information                      |
 ----------------------------------------------------------------------
 |       Timestep       |  RMS Courant Number  |  Max Courant Number  |
 +----------------------+----------------------+----------------------+
 |      1.0000E-01      |          3.93        |         17.94        |
 ----------------------------------------------------------------------

 ======================================================================
 TIME STEP =   300 SIMULATION TIME = 3.0000E+01 CPU SECONDS = 2.468E+03
 ----------------------------------------------------------------------
 COEFFICIENT LOOP ITERATION =    1              CPU SECONDS = 2.468E+03
 ----------------------------------------------------------------------
 |       Equation       | Rate | RMS Res | Max Res |  Linear Solution |
 +----------------------+------+---------+---------+------------------+
 | U-Mom                | 0.99 | 2.6E-06 | 2.5E-05 |       3.5E-03  OK|
 | V-Mom                | 0.99 | 2.7E-06 | 1.9E-05 |       3.1E-03  OK|
 | W-Mom                | 0.99 | 5.7E-07 | 9.5E-06 |       2.2E-02  OK|
 | P-Mass               | 0.99 | 3.6E-07 | 4.4E-06 | 18.2  5.3E-02  OK|
 +----------------------+------+---------+---------+------------------+
 | H-Energy             | 0.99 | 2.7E-05 | 1.1E-04 |  5.5  5.9E-04  OK|
 +----------------------+------+---------+---------+------------------+
 | K-TurbKE             | 0.99 | 3.6E-05 | 2.0E-04 |  5.5  2.0E-03  OK|
 | O-TurbFreq           | 0.99 | 1.1E-05 | 2.2E-04 |  7.5  6.7E-04  OK|
 +----------------------+------+---------+---------+------------------+
                   
 CFD Solver finished: Fri Dec  7 13:15:28 2018
 CFD Solver wall clock seconds: 6.1206E+02

 ======================================================================
              Termination and Interrupt Condition Summary
 ======================================================================
    
 CFD Solver: Run duration reached
   (Maximum simulation time)

 ======================================================================
              Boundary Flow and Total Source Term Summary
 ======================================================================

 +--------------------------------------------------------------------+
 |                               U-Mom                                |
 +--------------------------------------------------------------------+
 Boundary         : Default Domain Default                  6.9727E+00
 Boundary         : in1                                     7.6703E-06
 Boundary         : in2                                    -3.0811E-05
 Boundary         : out                                    -6.9529E+00
 Neg Accumulation : Default Domain                         -5.4049E-02
                                                           -----------
 Domain Imbalance :                                        -3.4287E-02

 +--------------------------------------------------------------------+
 |                               V-Mom                                |
 +--------------------------------------------------------------------+
 Boundary         : Default Domain Default                  1.4371E+01
 Boundary         : in1                                     1.8046E+04
 Boundary         : in2                                    -1.8054E+04
 Boundary         : out                                    -6.6278E+00
 Neg Accumulation : Default Domain                         -5.5448E-02
                                                           -----------
 Domain Imbalance :                                         9.2170E-02

 +--------------------------------------------------------------------+
 |                               W-Mom                                |
 +--------------------------------------------------------------------+
 Boundary         : Default Domain Default                 -1.1669E+04
 Boundary         : in1                                     1.1006E-06
 Boundary         : in2                                    -7.9990E-06
 Boundary         : out                                     1.1669E+04
 Neg Accumulation : Default Domain                         -7.6893E-02
                                                           -----------
 Domain Imbalance :                                         8.0333E-02

 +--------------------------------------------------------------------+
 |                               P-Mass                               |
 +--------------------------------------------------------------------+
 Boundary         : in1                                     1.5000E+03
 Boundary         : in2                                     1.5000E+03
 Boundary         : out                                    -3.0000E+03
                                                           -----------
 Domain Imbalance :                                         2.6855E-03

 +--------------------------------------------------------------------+
 |                              H-Energy                              |
 +--------------------------------------------------------------------+
 Boundary         : in1                                     1.0569E+08
 Boundary         : in2                                    -8.2484E+07
 Boundary         : out                                    -2.0505E+07
 Neg Accumulation : Default Domain                          1.3602E+06
                                                           -----------
 Domain Imbalance :                                         4.0634E+06


 +--------------------------------------------------------------------+
 |                     Normalised Imbalance Summary                   |
 +--------------------------------------------------------------------+
 |       Equation       |      Maximum Flow     |     Imbalance (%)   |
 +--------------------------------------------------------------------+
 | U-Mom                |       1.8054E+04      |       -0.0002       |
 | V-Mom                |       1.8054E+04      |        0.0005       |
 | W-Mom                |       1.8054E+04      |        0.0004       |
 | P-Mass               |       3.0000E+03      |        0.0001       |
 +----------------------+-----------------------+---------------------+
 | H-Energy             |       1.0569E+08      |        3.8445       |
 +----------------------+-----------------------+---------------------+

 ======================================================================
                     Wall Force and Moment Summary
 ======================================================================
                                                                          
 Notes:
 1. Pressure integrals exclude the reference pressure.  To include
    it, set the expert parameter 'include pref in forces = t'.


 +--------------------------------------------------------------------+
 |                      Pressure Force On Walls                       |
 +--------------------------------------------------------------------+
                                    X-Comp.      Y-Comp.      Z-Comp.

 Domain Group: Default Domain

 Default Domain Default          -7.1748E+00  -1.4263E+01   1.1732E+04
                                  -----------  -----------  -----------
 Domain Group Totals :           -7.1748E+00  -1.4263E+01   1.1732E+04


 +--------------------------------------------------------------------+
 |                       Viscous Force On Walls                       |
 +--------------------------------------------------------------------+
                                    X-Comp.      Y-Comp.      Z-Comp.

 Domain Group: Default Domain

 Default Domain Default           1.4545E-01   4.8323E-03  -6.2553E+01
                                  -----------  -----------  -----------
 Domain Group Totals :            1.4545E-01   4.8323E-03  -6.2553E+01


 +--------------------------------------------------------------------+
 |                      Pressure Moment On Walls                      |
 +--------------------------------------------------------------------+
                                    X-Comp.      Y-Comp.      Z-Comp.

 Domain Group: Default Domain

 Default Domain Default          -2.1016E+00   8.7910E+00  -2.6402E+04
                                  -----------  -----------  -----------
 Domain Group Totals :           -2.1016E+00   8.7910E+00  -2.6402E+04


 +--------------------------------------------------------------------+
 |                       Viscous Moment On Walls                      |
 +--------------------------------------------------------------------+
                                    X-Comp.      Y-Comp.      Z-Comp.

 Domain Group: Default Domain

 Default Domain Default           9.3609E-01  -1.2161E+00  -4.3296E+02
                                  -----------  -----------  -----------
 Domain Group Totals :            9.3609E-01  -1.2161E+00  -4.3296E+02


 +--------------------------------------------------------------------+
 |                   Locations of Maximum Residuals                   |
 +--------------------------------------------------------------------+
 |       Equation       |      Domain Name      |     Node Number     |
 +--------------------------------------------------------------------+
 | U-Mom                | Default Domain        |          34066      |
 | V-Mom                | Default Domain        |          25262      |
 | W-Mom                | Default Domain        |          33247      |
 | P-Mass               | Default Domain        |           3175      |
 +----------------------+-----------------------+---------------------+
 | H-Energy             | Default Domain        |          32164      |
 +----------------------+-----------------------+---------------------+
 | K-TurbKE             | Default Domain        |          10828      |
 | O-TurbFreq           | Default Domain        |          35408      |
 +----------------------+-----------------------+---------------------+

 +--------------------------------------------------------------------+
 |                     Average Scale Information                      |
 +--------------------------------------------------------------------+

 Domain Name : Default Domain
     Global Length                                         = 3.2160E+00
     Minimum Extent                                        = 4.0000E+00
     Maximum Extent                                        = 6.0000E+00
     Density                                               = 9.9700E+02
     Dynamic Viscosity                                     = 8.8990E-04
     Velocity                                              = 2.1687E+00
     Advection Time                                        = 1.4829E+00
     RMS Courant Number                                    = 3.9284E+00
     Maximum Courant Number                                = 1.7941E+01
     Reynolds Number                                       = 7.8138E+06
     Thermal Conductivity                                  = 6.0690E-01
     Specific Heat Capacity at Constant Pressure           = 4.1817E+03
     Prandtl Number                                        = 6.1316E+00
     Temperature Range                                     = 3.0012E+01

 +--------------------------------------------------------------------+
 |                     Variable Range Information                     |
 +--------------------------------------------------------------------+

 Domain Name : Default Domain
 +--------------------------------------------------------------------+
 |      Variable Name                         |    min    |    max    |
 +--------------------------------------------------------------------+
 | Density                                    |  9.97E+02 |  9.97E+02 |
 | Specific Heat Capacity at Constant Pressure|  4.18E+03 |  4.18E+03 |
 | Dynamic Viscosity                          |  8.90E-04 |  8.90E-04 |
 | Thermal Conductivity                       |  6.07E-01 |  6.07E-01 |
 | Static Entropy                             | -1.89E+02 |  2.30E+02 |
 | Velocity u                                 | -3.52E+00 |  3.57E+00 |
 | Velocity v                                 | -3.89E+00 |  3.87E+00 |
 | Velocity w                                 | -4.38E+00 |  2.09E+00 |
 | Pressure                                   | -1.82E+03 |  2.18E+04 |
 | Turbulence Kinetic Energy                  |  1.94E-04 |  6.50E-02 |
 | Turbulence Eddy Frequency                  |  4.27E+00 |  2.05E+02 |
 | Eddy Viscosity                             |  6.76E-03 |  3.16E+00 |
 | Temperature                                |  2.85E+02 |  3.15E+02 |
 | Static Enthalpy                            | -5.50E+04 |  7.05E+04 |
 | Wall Scale                                 | -1.13E-03 |  5.75E-01 |
 | Wall Distance                              |  0.00E+00 |  1.05E+00 |
 +--------------------------------------------------------------------+

 +--------------------------------------------------------------------+
 |           CPU Requirements of Numerical Solution - Total           |
 +--------------------------------------------------------------------+

 Subsystem Name                  Discretization       Linear Solution
                                (secs.   %total)     (secs.   %total) 
 ----------------------------------------------------------------------
 Wall Scale                     8.16E-01   0.0 %     1.00E+00   0.0 %
 Momentum and Mass              4.98E+02  20.1 %     3.49E+02  14.0 %
 Heat Transfer                  1.35E+02   5.4 %     7.27E+01   2.9 %
 TurbKE and TurbFreq            1.79E+02   7.2 %     1.44E+02   5.8 %
                                -------- -------     --------  ------
 Subsystem Summary              8.13E+02  32.7 %     5.66E+02  22.8 %

 File Reading                   8.43E-01    0.0 %
 Search Calculations            5.98E-03    0.0 %
 Variable Updates               1.57E+02    6.3 %
 File Writing                   1.09E+02    4.4 %
 Miscellaneous                  8.36E+02   33.7 %
                                --------
 Total                          2.48E+03

 +--------------------------------------------------------------------+
 |                   Job Information at End of Run                    |
 +--------------------------------------------------------------------+

 Job finished:   Fri Dec  7 13:15:30 2018

 Total wall clock time: 6.206E+02 seconds
             or: (          0:         0:        10:    20.568 )
                 (       Days:     Hours:   Minutes:   Seconds )



 --> Final synchronization point reached by all partitions.
End of solution stage.

 +--------------------------------------------------------------------+
 | The following transient and backup files written by the ANSYS CFX  |
 | solver have been saved in the directory                            |
 | H:/dos/CFD/CW/CFD-Static-Mixer/StaticMixerDX_pending/dp6_CFX_Solu- |
 | tion/Fluid Flow CFX_001:                                           |
 |                                                                    |
 | 95_full.trn, 90_full.trn, 85_full.trn, 80_full.trn, 75_full.trn,   |
 | 70_full.trn, 65_full.trn, 60_full.trn, 5_full.trn, 55_full.trn,    |
 | 50_full.trn, 45_full.trn, 40_full.trn, 35_full.trn, 30_full.trn,   |
 | 295_full.trn, 290_full.trn, 285_full.trn, 280_full.trn,            |
 | 275_full.trn, 270_full.trn, 265_full.trn, 260_full.trn,            |
 | 25_full.trn, 255_full.trn, 250_full.trn, 245_full.trn,             |
 | 240_full.trn, 235_full.trn, 230_full.trn, 225_full.trn,            |
 | 220_full.trn, 215_full.trn, 210_full.trn, 20_full.trn,             |
 | 205_full.trn, 200_full.trn, 195_full.trn, 190_full.trn,            |
 | 185_full.trn, 180_full.trn, 175_full.trn, 170_full.trn,            |
 | 165_full.trn, 160_full.trn, 15_full.trn, 155_full.trn,             |
 | 150_full.trn, 145_full.trn, 140_full.trn, 135_full.trn,            |
 | 130_full.trn, 125_full.trn, 120_full.trn, 115_full.trn,            |
 | 110_full.trn, 10_full.trn, 105_full.trn, 100_full.trn, 0_full.trn  |
 +--------------------------------------------------------------------+


 +--------------------------------------------------------------------+
 | The results from this run of the ANSYS CFX Solver have been        |
 | written to                                                         |
 | H:/dos/CFD/CW/CFD-Static-Mixer/StaticMixerDX_pending/dp6_CFX_Solu- |
 | tion/Fluid Flow CFX_001.res                                        |
 +--------------------------------------------------------------------+


 +--------------------------------------------------------------------+
 | For CFX runs launched from Workbench, the final locations of       |
 | directories and files generated may differ from those shown.       |
 +--------------------------------------------------------------------+


This run of the ANSYS CFX Solver has finished.
