 This run of the CFX Release 19.1 Solver started at 14:26:51 on 06 Dec
 2018 by user jc2182 on ENPC-LAB137 (intel_xeon64.sse2_winnt) using the
 command:
 
  "C:\Program Files\ANSYS Inc\v191\CFX\bin\perllib\cfx5solve.pl" -batch
    -ccl runInput.ccl -fullname "Fluid Flow CFX_008"
 
 Release 19.1
 
  Point Releases and Patches installed:
  ANSYS, Inc. Products Release 19.1
  SpaceClaim Release 19.1
  Autodyn Release 19.1
  LS-DYNA Release 19.1
  CFD-Post only Release 19.1
  CFX (includes CFD-Post) Release 19.1
  Chemkin Release 19.1
  EnSight Release 19.1
  FENSAP-ICE Release 19.1
  Fluent (includes CFD-Post) Release 19.1
  Forte Release 19.1
  Polyflow (includes CFD-Post) Release 19.1
  TurboGrid Release 19.1
  ICEM CFD Release 19.1
  Customization Files for User Programmable Features Release 19.1
  Mechanical Products Release 19.1
  Icepak (includes CFD-Post) Release 19.1
  Remote Solve Manager Standalone Services Release 19.1
  ACIS Geometry Interface Release 19.1
  Catia, Version 5 Geometry Interface Release 19.1
  NX Geometry Interface Release 19.1
  Parasolid Geometry Interface  Release 19.1
  ANSYS, Inc. License Manager Release 19.1
 
 Setting up CFX Solver run ...
 
 
 +--------------------------------------------------------------------+
 |                                                                    |
 |                    CFX Command Language for Run                    |
 |                                                                    |
 +--------------------------------------------------------------------+
 
 LIBRARY:
   CEL:
     EXPRESSIONS:
       inMassFlow = 1500 [kg s^-1]
     END
   END
   MATERIAL: Water
     Material Description = Water (liquid)
     Material Group = Water Data, Constant Property Liquids
     Option = Pure Substance
     Thermodynamic State = Liquid
     PROPERTIES:
       Option = General Material
       EQUATION OF STATE:
         Density = 997.0 [kg m^-3]
         Molar Mass = 18.02 [kg kmol^-1]
         Option = Value
       END
       SPECIFIC HEAT CAPACITY:
         Option = Value
         Specific Heat Capacity = 4181.7 [J kg^-1 K^-1]
         Specific Heat Type = Constant Pressure
       END
       REFERENCE STATE:
         Option = Specified Point
         Reference Pressure = 1 [atm]
         Reference Specific Enthalpy = 0.0 [J/kg]
         Reference Specific Entropy = 0.0 [J/kg/K]
         Reference Temperature = 25 [C]
       END
       DYNAMIC VISCOSITY:
         Dynamic Viscosity = 8.899E-4 [kg m^-1 s^-1]
         Option = Value
       END
       THERMAL CONDUCTIVITY:
         Option = Value
         Thermal Conductivity = 0.6069 [W m^-1 K^-1]
       END
       ABSORPTION COEFFICIENT:
         Absorption Coefficient = 1.0 [m^-1]
         Option = Value
       END
       SCATTERING COEFFICIENT:
         Option = Value
         Scattering Coefficient = 0.0 [m^-1]
       END
       REFRACTIVE INDEX:
         Option = Value
         Refractive Index = 1.0 [m m^-1]
       END
       THERMAL EXPANSIVITY:
         Option = Value
         Thermal Expansivity = 2.57E-04 [K^-1]
       END
     END
   END
 END
 FLOW: Flow Analysis 1
   SOLUTION UNITS:
     Angle Units = [rad]
     Length Units = [m]
     Mass Units = [kg]
     Solid Angle Units = [sr]
     Temperature Units = [K]
     Time Units = [s]
   END
   ANALYSIS TYPE:
     Option = Steady State
     EXTERNAL SOLVER COUPLING:
       Option = None
     END
   END
   DOMAIN: Default Domain
     Coord Frame = Coord 0
     Domain Type = Fluid
     Location = B17
     BOUNDARY: Default Domain Default
       Boundary Type = WALL
       Location = F12.17,F14.17,F16.17,F19.17,F20.17,F21.17
       BOUNDARY CONDITIONS:
         HEAT TRANSFER:
           Option = Adiabatic
         END
         MASS AND MOMENTUM:
           Option = No Slip Wall
         END
         WALL ROUGHNESS:
           Option = Smooth Wall
         END
       END
     END
     BOUNDARY: in1
       Boundary Type = INLET
       Location = in1
       BOUNDARY CONDITIONS:
         FLOW DIRECTION:
           Option = Normal to Boundary Condition
         END
         FLOW REGIME:
           Option = Subsonic
         END
         HEAT TRANSFER:
           Option = Static Temperature
           Static Temperature = 315 [K]
         END
         MASS AND MOMENTUM:
           Mass Flow Rate = inMassFlow
           Mass Flow Rate Area = As Specified
           Option = Mass Flow Rate
         END
         TURBULENCE:
           Option = Medium Intensity and Eddy Viscosity Ratio
         END
       END
     END
     BOUNDARY: in2
       Boundary Type = INLET
       Location = in2
       BOUNDARY CONDITIONS:
         FLOW DIRECTION:
           Option = Normal to Boundary Condition
         END
         FLOW REGIME:
           Option = Subsonic
         END
         HEAT TRANSFER:
           Option = Static Temperature
           Static Temperature = 285 [K]
         END
         MASS AND MOMENTUM:
           Mass Flow Rate = inMassFlow
           Mass Flow Rate Area = As Specified
           Option = Mass Flow Rate
         END
         TURBULENCE:
           Option = Medium Intensity and Eddy Viscosity Ratio
         END
       END
     END
     BOUNDARY: out
       Boundary Type = OUTLET
       Location = out
       BOUNDARY CONDITIONS:
         FLOW REGIME:
           Option = Subsonic
         END
         MASS AND MOMENTUM:
           Option = Static Pressure
           Relative Pressure = 0 [Pa]
         END
       END
     END
     DOMAIN MODELS:
       BUOYANCY MODEL:
         Option = Non Buoyant
       END
       DOMAIN MOTION:
         Option = Stationary
       END
       MESH DEFORMATION:
         Option = None
       END
       REFERENCE PRESSURE:
         Reference Pressure = 1 [atm]
       END
     END
     FLUID DEFINITION: Fluid 1
       Material = Water
       Option = Material Library
       MORPHOLOGY:
         Option = Continuous Fluid
       END
     END
     FLUID MODELS:
       COMBUSTION MODEL:
         Option = None
       END
       HEAT TRANSFER MODEL:
         Option = Thermal Energy
       END
       THERMAL RADIATION MODEL:
         Option = None
       END
       TURBULENCE MODEL:
         Option = k epsilon
       END
       TURBULENT WALL FUNCTIONS:
         Option = Scalable
       END
     END
   END
   OUTPUT CONTROL:
     RESULTS:
       File Compression Level = Default
       Option = Standard
     END
   END
   SOLVER CONTROL:
     Turbulence Numerics = High Resolution
     ADVECTION SCHEME:
       Option = High Resolution
     END
     CONVERGENCE CONTROL:
       Length Scale Option = Conservative
       Maximum Number of Iterations = 100
       Minimum Number of Iterations = 5
       Timescale Control = Auto Timescale
       Timescale Factor = 1.0
     END
     CONVERGENCE CRITERIA:
       Residual Target = 1.E-4
       Residual Type = RMS
     END
     DYNAMIC MODEL CONTROL:
       Global Dynamic Model Control = On
     END
   END
 END
 COMMAND FILE:
   Version = 19.1
   Results Version = 19.1
 END
 PARAMETERIZATION:
   INPUT FIELD: inMassFlow
     Expression Name = inMassFlow
     Method = Expression
   END
 END
 SIMULATION CONTROL:
   EXECUTION CONTROL:
     EXECUTABLE SELECTION:
       Double Precision = No
       Large Problem = No
     END
     INTERPOLATOR STEP CONTROL:
       Runtime Priority = Standard
       MEMORY CONTROL:
         Memory Allocation Factor = 1.0
       END
     END
     PARALLEL HOST LIBRARY:
       HOST DEFINITION: enpclab137
         Remote Host Name = ENPC-LAB137
         Host Architecture String = winnt-amd64
         Installation Root = C:\Program Files\ANSYS Inc\v%v\CFX
       END
     END
     PARTITIONER STEP CONTROL:
       Multidomain Option = Automatic
       Runtime Priority = Standard
       MEMORY CONTROL:
         Memory Allocation Factor = 1.0
       END
       PARTITION SMOOTHING:
         Maximum Partition Smoothing Sweeps = 100
         Option = Smooth
       END
       PARTITIONING TYPE:
         MeTiS Type = k-way
         Option = MeTiS
         Partition Size Rule = Automatic
       END
     END
     RUN DEFINITION:
       Run Mode = Full
       Solver Input File = Fluid Flow CFX.def
       Solver Results File = \
         H:/dos/CFD/CW/CFD-Static-Mixer/StaticMixerDX_pending/dp6_CFX_Solution\
         /Fluid Flow CFX_008.res
       INITIAL VALUES SPECIFICATION:
         INITIAL VALUES CONTROL:
           Use Mesh From = Solver Input File
           Continue History From = Workbench Initial Values
         END
         INITIAL VALUES: Workbench Initial Values
           Option = Results File
           File Name = Fluid Flow CFX_007.res
         END
       END
     END
     SOLVER STEP CONTROL:
       Runtime Priority = Standard
       MEMORY CONTROL:
         Memory Allocation Factor = 1.0
       END
       PARALLEL ENVIRONMENT:
         Number of Processes = 1
         Start Method = Serial
       END
     END
   END
 END
 
 
 +--------------------------------------------------------------------+
 |                                                                    |
 |                  Interpolation of Initial Values                   |
 |                                                                    |
 +--------------------------------------------------------------------+
 
 


 +--------------------------------------------------------------------+
 |                                                                    |
 |                    ANSYS(R) CFX(R) Interpolator                    |
 |                                                                    |
 | Release 19.1                                                       |
 | Build 19.1 2018-04-17T13:27:50.069000                              |
 | Tue Apr 17 15:02:11 GMTDT 2018                                     |
 |                                                                    |
 |                        Executable Attributes                       |
 |                                                                    |
 |           single-64bit-int32-archfort-optimised-std-lcomp          |
 |                                                                    |
 | (C) 1996-2018 ANSYS, Inc.                                          |
 |                                                                    |
 | All rights reserved. Unauthorized use, distribution or duplication |
 | is prohibited. This product is subject to U.S. laws governing      |
 | export and re-export. For full Legal Notice, see documentation.    |
 +--------------------------------------------------------------------+




 +--------------------------------------------------------------------+
 |                  Job Information at Start of Run                   |
 +--------------------------------------------------------------------+

 Run mode:       serial run

 Host computer:  ENPC-LAB137 (PID:9408)

 Job started:    Thu Dec  6 14:26:53 2018


 +--------------------------------------------------------------------+
 |        Memory Allocated for Run  (Actual usage may be less)        |
 +--------------------------------------------------------------------+

           | Real       | Integer    | Character | Logical  | Double
 ----------+------------+------------+-----------+----------+----------
 Mwords    |       1.55 |       1.79 |      0.20 |     0.01 |     0.08
 Mbytes    |       5.90 |       6.82 |      0.19 |     0.04 |     0.63
 ----------+------------+------------+-----------+----------+----------


 +--------------------------------------------------------------------+
 |                  Host Memory Information (Mbytes)                  |
 +--------------------------------------------------------------------+
 |          Host           |     System     |   Allocated    |   %    |
 +-------------------------+----------------+----------------+--------+
 | ENPC-LAB137             |     16240.97   |        13.57   |   0.08 |
 +-------------------------+----------------+----------------+--------+

 ======================================================================
               Interpolating Onto Domain "Default Domain"
 ======================================================================

 Total Number of Nodes in the Target Domain              =        16348
 Bounding Box Volume of the Target Mesh                  =  9.60000E+01


 Checking all source domains from the source file:
   Target mesh is different from domain "Default Domain".

 Searching for Candidate Source Domains:
   Domain "Default Domain"
     Number of Mapped Nodes                     =        16348 (100.0%)
     Bounding Box Overlap Volume                =  9.60000E+01 (100.0%)

 Start interpolation of variables: 
   Source Domain Name                                    Mapped Nodes
   Default Domain                                        16348 (100.0%)

 +--------------------------------------------------------------------+
 |                     Variable Range Information                     |
 +--------------------------------------------------------------------+
 +--------------------------------------------------------------------+
 |      Variable Name                         |    min    |    max    |
 +--------------------------------------------------------------------+
 | Thermal Conductivity                       |  6.07E-01 |  6.07E-01 |
 | Courant Number                             |  9.61E-01 |  5.41E+01 |
 | Density                                    |  9.97E+02 |  9.97E+02 |
 | Static Enthalpy                            | -5.50E+04 |  7.05E+04 |
 | Static Entropy                             | -1.89E+02 |  2.30E+02 |
 | Pressure                                   | -1.04E+04 |  7.80E+04 |
 | Specific Heat Capacity at Constant Pressure|  4.18E+03 |  4.18E+03 |
 | Specific Heat Capacity at Constant Volume  |  4.18E+03 |  4.18E+03 |
 | Turbulence Eddy Dissipation                |  3.41E-04 |  2.72E+02 |
 | Turbulence Eddy Frequency                  |  6.70E+00 |  2.82E+03 |
 | Temperature                                |  2.85E+02 |  3.15E+02 |
 | Turbulence Kinetic Energy                  |  1.09E-04 |  4.65E+00 |
 | Velocity                                   |  2.58E-01 |  7.70E+00 |
 | Dynamic Viscosity                          |  8.90E-04 |  8.90E-04 |
 | Eddy Viscosity                             |  1.61E-03 |  3.34E+02 |
 +--------------------------------------------------------------------+

 +--------------------------------------------------------------------+
 |                 CPU Requirements of Interpolation                  |
 +--------------------------------------------------------------------+

 Interpolation Step              Time    Percentage
                                (secs.   %total)
 ----------------------------------------------------------------------
 Tree Setup                     3.61E-01    9.9 %
 Interpolation                  1.37E+00   37.4 %
 Miscellaneous                  1.93E+00   52.8 %
                                --------
 Total                          3.66E+00

 +--------------------------------------------------------------------+
 |                   Job Information at End of Run                    |
 +--------------------------------------------------------------------+

 Host computer:  ENPC-LAB137 (PID:9408)

 Job finished:   Thu Dec  6 14:26:56 2018

 Total wall clock time: 3.662E+00 seconds
             or: (          0:         0:         0:     3.662 )
                 (       Days:     Hours:   Minutes:   Seconds )

 
 +--------------------------------------------------------------------+
 |                                                                    |
 |                               Solver                               |
 |                                                                    |
 +--------------------------------------------------------------------+
 



 +--------------------------------------------------------------------+
 |                                                                    |
 |                       ANSYS(R) CFX(R) Solver                       |
 |                                                                    |
 | Release 19.1                                                       |
 | Build 19.1 2018-04-17T13:27:50.069000                              |
 | Tue Apr 17 15:02:11 GMTDT 2018                                     |
 |                                                                    |
 |                        Executable Attributes                       |
 |                                                                    |
 |           single-64bit-int32-archfort-optimised-std-lcomp          |
 |                                                                    |
 | (C) 1996-2018 ANSYS, Inc.                                          |
 |                                                                    |
 | All rights reserved. Unauthorized use, distribution or duplication |
 | is prohibited. This product is subject to U.S. laws governing      |
 | export and re-export. For full Legal Notice, see documentation.    |
 +--------------------------------------------------------------------+




 +--------------------------------------------------------------------+
 |                  Job Information at Start of Run                   |
 +--------------------------------------------------------------------+

 Run mode:       serial run

 Host computer:  ENPC-LAB137 (PID:1440)

 Job started:    Thu Dec  6 14:26:59 2018

 +--------------------------------------------------------------------+
 |                        License Information                         |
 +--------------------------------------------------------------------+
 
 License Cap:    ANSYS CFX Solver (Max 128K Nodes)
 License Cap:    ANSYS CFX Solver (Introductory)
 License ID:     VIGO_campus_bath_ac_uk-SYSTEM-1456-871969


 +--------------------------------------------------------------------+
 |        Memory Allocated for Run  (Actual usage may be less)        |
 +--------------------------------------------------------------------+

           | Real       | Integer    | Character | Logical  | Double
 ----------+------------+------------+-----------+----------+----------
 Mwords    |      12.71 |       3.98 |      7.26 |     0.12 |     0.53
 Mbytes    |      48.47 |      15.19 |      6.92 |     0.46 |     4.06
 ----------+------------+------------+-----------+----------+----------


 +--------------------------------------------------------------------+
 |                  Host Memory Information (Mbytes)                  |
 +--------------------------------------------------------------------+
 |          Host           |     System     |   Allocated    |   %    |
 +-------------------------+----------------+----------------+--------+
 | ENPC-LAB137             |     16240.97   |        75.10   |   0.46 |
 +-------------------------+----------------+----------------+--------+


 +--------------------------------------------------------------------+
 |                     ****** Notice ******                           |
 | The Wall Heat Transfer Coefficient written to the results file for |
 | any turbulent phase with heat transfer is based on the turbulent   |
 | wall function coefficient. It is consistent with the Wall Heat Flux|
 | the wall temperature, and the Wall Adjacent Temperature            |
 | (near-wall temperature).  If you would like it to be based on a    |
 | user-specified bulk temperature instead, please set the expert     |
 | parameter "tbulk for htc = <value>".                               |
 +--------------------------------------------------------------------+

 +--------------------------------------------------------------------+
 |                      Topology Simplification                       |
 +--------------------------------------------------------------------+

 +--------------------------------------------------------------------+
 |                       ****** Warning ******                        |
 |                                                                    |
 | Topology simplification is activated with the following            |
 | restrictions:                                                      |
 |                                                                    |
 | - Mesh regions referenced only within User Fortran and NOT         |
 |   in the command file will cause the solver to stop.               |
 | - The solver will stop during any "Edit Run in Progress" step      |
 |   if new 2D regions are referenced.                                |
 +--------------------------------------------------------------------+

 +--------------------------------------------------------------------+
 |                          Mesh Statistics                           |
 +--------------------------------------------------------------------+
 | Domain Name          | Orthog. Angle | Exp. Factor  | Aspect Ratio |
 +----------------------+---------------+--------------+--------------+
 |                      | Minimum [deg] |   Maximum    |    Maximum   |
 +----------------------+---------------+--------------+--------------+
 | Default Domain       |       49.5 ok |         8 ok |         5 OK |
 +----------------------+---------------+--------------+--------------+
 |                      |  %!  %ok  %OK | %!  %ok  %OK | %!  %ok  %OK |
 +----------------------+---------------+--------------+--------------+
 | Default Domain       |   0   <1  100 |  0   <1  100 |  0    0  100 |
 +----------------------+---------------+--------------+--------------+

 Domain Name : Default Domain

     Total Number of Nodes                                =       16348

     Total Number of Elements                             =       87301
         Total Number of Tetrahedrons                     =       87301

     Total Number of Faces                                =        6724

 +--------------------------------------------------------------------+
 |      Initial Conditions Supplied by Fields in the Input Files      |
 +--------------------------------------------------------------------+

 Domain Name : Default Domain
     Courant Number
     Eddy Viscosity
     Pressure
     Specific Heat Capacity at Constant Pressure
     Static Enthalpy
     Static Entropy
     Temperature
     Turbulence Eddy Dissipation
     Turbulence Eddy Frequency
     Turbulence Kinetic Energy
     Velocity

 +--------------------------------------------------------------------+
 |                     Average Scale Information                      |
 +--------------------------------------------------------------------+

 Domain Name : Default Domain
     Global Length                                         = 3.2201E+00
     Minimum Extent                                        = 4.0000E+00
     Maximum Extent                                        = 6.0000E+00
     Density                                               = 9.9700E+02
     Dynamic Viscosity                                     = 8.8990E-04
     Velocity                                              = 5.7786E+00
     Advection Time                                        = 5.5724E-01
     Reynolds Number                                       = 2.0847E+07
     Thermal Conductivity                                  = 6.0690E-01
     Specific Heat Capacity at Constant Pressure           = 4.1817E+03
     Prandtl Number                                        = 6.1316E+00
     Temperature Range                                     = 3.0020E+01

 +--------------------------------------------------------------------+
 |                Checking for Isolated Fluid Regions                 |
 +--------------------------------------------------------------------+
 
 No isolated fluid regions were found.

 +--------------------------------------------------------------------+
 |              The Equations Solved in This Calculation              |
 +--------------------------------------------------------------------+

 Subsystem : Momentum and Mass

   U-Mom
   V-Mom
   W-Mom
   P-Mass

 Subsystem : Heat Transfer

   H-Energy

 Subsystem : TurbKE and Diss.K

   K-TurbKE
   E-Diss.K
                   
 CFD Solver started: Thu Dec  6 14:27:03 2018


 +--------------------------------------------------------------------+
 |                       Convergence History                          |
 +--------------------------------------------------------------------+

 ======================================================================
 |                        Timescale Information                       |
 ----------------------------------------------------------------------
 |       Equation       |         Type          |      Timescale      |
 +----------------------+-----------------------+---------------------+
 | U-Mom                | Auto Timescale        |     1.72334E-01     |
 | V-Mom                | Auto Timescale        |     1.72334E-01     |
 | W-Mom                | Auto Timescale        |     1.72334E-01     |
 +----------------------+-----------------------+---------------------+
 | H-Energy             | Auto Timescale        |     1.72334E-01     |
 +----------------------+-----------------------+---------------------+
 | K-TurbKE             | Auto Timescale        |     1.72334E-01     |
 | E-Diss.K             | Auto Timescale        |     1.72334E-01     |
 +----------------------+-----------------------+---------------------+

 ======================================================================
 OUTER LOOP ITERATION =  357 (    1) CPU SECONDS = 2.452E+02 (3.900E+00)
 ----------------------------------------------------------------------
 |       Equation       | Rate | RMS Res | Max Res |  Linear Solution |
 +----------------------+------+---------+---------+------------------+
 | U-Mom                | 0.00 | 4.0E-03 | 5.2E-02 |       7.3E-02  OK|
 | V-Mom                | 0.00 | 4.9E-03 | 9.3E-02 |       6.9E-02  OK|
 | W-Mom                | 0.00 | 4.0E-03 | 5.5E-02 |       6.6E-02  OK|
 | P-Mass               | 0.00 | 2.1E-03 | 6.4E-02 |  4.7  9.4E-02  OK|
 +----------------------+------+---------+---------+------------------+
 | H-Energy             | 0.00 | 9.1E-03 | 1.5E-01 |  5.3  2.2E-02  OK|
 +----------------------+------+---------+---------+------------------+
 | K-TurbKE             | 0.00 | 1.6E-02 | 2.1E-01 |  5.3  2.7E-02  OK|
 | E-Diss.K             | 0.00 | 5.6E-01 | 1.1E+01 |  8.2  8.1E-03  OK|
 +----------------------+------+---------+---------+------------------+

 ======================================================================
 OUTER LOOP ITERATION =  358 (    2) CPU SECONDS = 2.462E+02 (4.903E+00)
 ----------------------------------------------------------------------
 |       Equation       | Rate | RMS Res | Max Res |  Linear Solution |
 +----------------------+------+---------+---------+------------------+
 | U-Mom                | 0.46 | 1.8E-03 | 2.8E-02 |       5.1E-02  OK|
 | V-Mom                | 0.48 | 2.4E-03 | 5.4E-02 |       4.8E-02  OK|
 | W-Mom                | 0.51 | 2.0E-03 | 3.0E-02 |       3.1E-02  OK|
 | P-Mass               | 0.40 | 8.4E-04 | 1.7E-02 |  8.5  5.1E-02  OK|
 +----------------------+------+---------+---------+------------------+
 | H-Energy             | 0.16 | 1.5E-03 | 2.9E-02 |  5.4  3.8E-02  OK|
 +----------------------+------+---------+---------+------------------+
 | K-TurbKE             | 0.76 | 1.2E-02 | 1.0E-01 |  5.3  2.2E-02  OK|
 | E-Diss.K             | 0.03 | 1.7E-02 | 3.7E-01 |  8.3  5.4E-03  OK|
 +----------------------+------+---------+---------+------------------+

 ======================================================================
 OUTER LOOP ITERATION =  359 (    3) CPU SECONDS = 2.470E+02 (5.720E+00)
 ----------------------------------------------------------------------
 |       Equation       | Rate | RMS Res | Max Res |  Linear Solution |
 +----------------------+------+---------+---------+------------------+
 | U-Mom                | 0.62 | 1.1E-03 | 2.5E-02 |       4.6E-02  OK|
 | V-Mom                | 0.55 | 1.3E-03 | 3.2E-02 |       4.5E-02  OK|
 | W-Mom                | 0.59 | 1.2E-03 | 1.8E-02 |       3.7E-02  OK|
 | P-Mass               | 0.59 | 4.9E-04 | 6.0E-03 |  8.5  7.1E-02  OK|
 +----------------------+------+---------+---------+------------------+
 | H-Energy             | 0.77 | 1.1E-03 | 3.1E-02 |  5.4  3.4E-02  OK|
 +----------------------+------+---------+---------+------------------+
 | K-TurbKE             | 0.57 | 7.1E-03 | 4.7E-02 |  5.4  2.9E-02  OK|
 | E-Diss.K             | 0.52 | 9.1E-03 | 8.2E-02 |  8.2  8.3E-03  OK|
 +----------------------+------+---------+---------+------------------+

 ======================================================================
 OUTER LOOP ITERATION =  360 (    4) CPU SECONDS = 2.478E+02 (6.525E+00)
 ----------------------------------------------------------------------
 |       Equation       | Rate | RMS Res | Max Res |  Linear Solution |
 +----------------------+------+---------+---------+------------------+
 | U-Mom                | 0.69 | 7.9E-04 | 2.1E-02 |       3.1E-02  OK|
 | V-Mom                | 0.57 | 7.4E-04 | 1.9E-02 |       3.1E-02  OK|
 | W-Mom                | 0.57 | 6.8E-04 | 1.1E-02 |       4.1E-02  OK|
 | P-Mass               | 0.65 | 3.2E-04 | 3.5E-03 |  8.5  7.2E-02  OK|
 +----------------------+------+---------+---------+------------------+
 | H-Energy             | 1.01 | 1.1E-03 | 2.5E-02 |  5.4  3.9E-02  OK|
 +----------------------+------+---------+---------+------------------+
 | K-TurbKE             | 0.61 | 4.3E-03 | 2.4E-02 |  5.4  3.3E-02  OK|
 | E-Diss.K             | 0.82 | 7.5E-03 | 4.6E-02 |  8.2  8.8E-03  OK|
 +----------------------+------+---------+---------+------------------+

 ======================================================================
 |                        Timescale Information                       |
 ----------------------------------------------------------------------
 |       Equation       |         Type          |      Timescale      |
 +----------------------+-----------------------+---------------------+
 | U-Mom                | Auto Timescale        |     1.82852E-01     |
 | V-Mom                | Auto Timescale        |     1.82852E-01     |
 | W-Mom                | Auto Timescale        |     1.82852E-01     |
 +----------------------+-----------------------+---------------------+
 | H-Energy             | Auto Timescale        |     1.82852E-01     |
 +----------------------+-----------------------+---------------------+
 | K-TurbKE             | Auto Timescale        |     1.82852E-01     |
 | E-Diss.K             | Auto Timescale        |     1.82852E-01     |
 +----------------------+-----------------------+---------------------+

 ======================================================================
 OUTER LOOP ITERATION =  361 (    5) CPU SECONDS = 2.486E+02 (7.331E+00)
 ----------------------------------------------------------------------
 |       Equation       | Rate | RMS Res | Max Res |  Linear Solution |
 +----------------------+------+---------+---------+------------------+
 | U-Mom                | 0.73 | 5.8E-04 | 1.4E-02 |       2.0E-02  OK|
 | V-Mom                | 0.66 | 4.8E-04 | 1.1E-02 |       2.3E-02  OK|
 | W-Mom                | 0.59 | 4.0E-04 | 6.5E-03 |       4.4E-02  OK|
 | P-Mass               | 0.55 | 1.8E-04 | 2.4E-03 |  8.5  6.9E-02  OK|
 +----------------------+------+---------+---------+------------------+
 | H-Energy             | 0.94 | 1.1E-03 | 1.8E-02 |  5.3  4.6E-02  OK|
 +----------------------+------+---------+---------+------------------+
 | K-TurbKE             | 0.67 | 2.9E-03 | 1.9E-02 |  5.4  3.5E-02  OK|
 | E-Diss.K             | 0.76 | 5.7E-03 | 3.2E-02 |  8.2  9.7E-03  OK|
 +----------------------+------+---------+---------+------------------+

 ======================================================================
 OUTER LOOP ITERATION =  362 (    6) CPU SECONDS = 2.494E+02 (8.158E+00)
 ----------------------------------------------------------------------
 |       Equation       | Rate | RMS Res | Max Res |  Linear Solution |
 +----------------------+------+---------+---------+------------------+
 | U-Mom                | 0.77 | 4.4E-04 | 9.8E-03 |       3.1E-02  OK|
 | V-Mom                | 0.80 | 3.9E-04 | 5.8E-03 |       3.8E-02  OK|
 | W-Mom                | 0.64 | 2.5E-04 | 4.1E-03 |       4.4E-02  OK|
 | P-Mass               | 0.62 | 1.1E-04 | 1.4E-03 |  8.5  6.5E-02  OK|
 +----------------------+------+---------+---------+------------------+
 | H-Energy             | 0.90 | 9.5E-04 | 1.1E-02 |  5.4  4.5E-02  OK|
 +----------------------+------+---------+---------+------------------+
 | K-TurbKE             | 0.71 | 2.1E-03 | 1.5E-02 |  5.4  3.1E-02  OK|
 | E-Diss.K             | 0.67 | 3.8E-03 | 2.1E-02 |  8.2  1.0E-02  OK|
 +----------------------+------+---------+---------+------------------+

 ======================================================================
 OUTER LOOP ITERATION =  363 (    7) CPU SECONDS = 2.503E+02 (8.995E+00)
 ----------------------------------------------------------------------
 |       Equation       | Rate | RMS Res | Max Res |  Linear Solution |
 +----------------------+------+---------+---------+------------------+
 | U-Mom                | 0.82 | 3.7E-04 | 7.8E-03 |       4.6E-02  OK|
 | V-Mom                | 0.89 | 3.4E-04 | 3.1E-03 |       5.2E-02  OK|
 | W-Mom                | 0.71 | 1.8E-04 | 2.7E-03 |       4.4E-02  OK|
 | P-Mass               | 0.93 | 1.0E-04 | 1.3E-03 |  8.5  6.9E-02  OK|
 +----------------------+------+---------+---------+------------------+
 | H-Energy             | 0.89 | 8.4E-04 | 9.5E-03 |  5.4  4.5E-02  OK|
 +----------------------+------+---------+---------+------------------+
 | K-TurbKE             | 0.73 | 1.5E-03 | 1.2E-02 |  5.4  2.7E-02  OK|
 | E-Diss.K             | 0.69 | 2.6E-03 | 2.7E-02 |  8.2  9.8E-03  OK|
 +----------------------+------+---------+---------+------------------+

 ======================================================================
 OUTER LOOP ITERATION =  364 (    8) CPU SECONDS = 2.511E+02 (9.802E+00)
 ----------------------------------------------------------------------
 |       Equation       | Rate | RMS Res | Max Res |  Linear Solution |
 +----------------------+------+---------+---------+------------------+
 | U-Mom                | 0.86 | 3.2E-04 | 6.4E-03 |       5.6E-02  OK|
 | V-Mom                | 0.93 | 3.2E-04 | 2.6E-03 |       6.0E-02  OK|
 | W-Mom                | 0.78 | 1.4E-04 | 2.2E-03 |       4.7E-02  OK|
 | P-Mass               | 1.05 | 1.1E-04 | 1.4E-03 |  8.5  7.8E-02  OK|
 +----------------------+------+---------+---------+------------------+
 | H-Energy             | 0.89 | 7.5E-04 | 9.2E-03 |  5.4  4.3E-02  OK|
 +----------------------+------+---------+---------+------------------+
 | K-TurbKE             | 0.74 | 1.1E-03 | 8.4E-03 |  5.4  3.1E-02  OK|
 | E-Diss.K             | 0.82 | 2.2E-03 | 3.2E-02 |  8.2  7.2E-03  OK|
 +----------------------+------+---------+---------+------------------+

 ======================================================================
 OUTER LOOP ITERATION =  365 (    9) CPU SECONDS = 2.519E+02 (1.063E+01)
 ----------------------------------------------------------------------
 |       Equation       | Rate | RMS Res | Max Res |  Linear Solution |
 +----------------------+------+---------+---------+------------------+
 | U-Mom                | 0.89 | 2.8E-04 | 5.1E-03 |       6.3E-02  OK|
 | V-Mom                | 0.95 | 3.0E-04 | 2.5E-03 |       6.4E-02  OK|
 | W-Mom                | 0.84 | 1.2E-04 | 1.9E-03 |       5.1E-02  OK|
 | P-Mass               | 1.03 | 1.1E-04 | 1.4E-03 |  8.5  8.4E-02  OK|
 +----------------------+------+---------+---------+------------------+
 | H-Energy             | 0.88 | 6.6E-04 | 7.8E-03 |  5.4  4.3E-02  OK|
 +----------------------+------+---------+---------+------------------+
 | K-TurbKE             | 0.78 | 8.6E-04 | 6.1E-03 |  5.4  4.4E-02  OK|
 | E-Diss.K             | 0.93 | 2.0E-03 | 3.3E-02 |  8.2  5.0E-03  OK|
 +----------------------+------+---------+---------+------------------+

 ======================================================================
 |                        Timescale Information                       |
 ----------------------------------------------------------------------
 |       Equation       |         Type          |      Timescale      |
 +----------------------+-----------------------+---------------------+
 | U-Mom                | Auto Timescale        |     1.81669E-01     |
 | V-Mom                | Auto Timescale        |     1.81669E-01     |
 | W-Mom                | Auto Timescale        |     1.81669E-01     |
 +----------------------+-----------------------+---------------------+
 | H-Energy             | Auto Timescale        |     1.81669E-01     |
 +----------------------+-----------------------+---------------------+
 | K-TurbKE             | Auto Timescale        |     1.81669E-01     |
 | E-Diss.K             | Auto Timescale        |     1.81669E-01     |
 +----------------------+-----------------------+---------------------+

 ======================================================================
 OUTER LOOP ITERATION =  366 (   10) CPU SECONDS = 2.527E+02 (1.143E+01)
 ----------------------------------------------------------------------
 |       Equation       | Rate | RMS Res | Max Res |  Linear Solution |
 +----------------------+------+---------+---------+------------------+
 | U-Mom                | 0.91 | 2.6E-04 | 4.0E-03 |       6.8E-02  OK|
 | V-Mom                | 0.96 | 2.9E-04 | 2.5E-03 |       6.7E-02  OK|
 | W-Mom                | 0.87 | 1.0E-04 | 1.7E-03 |       5.6E-02  OK|
 | P-Mass               | 1.00 | 1.1E-04 | 1.3E-03 |  8.5  8.8E-02  OK|
 +----------------------+------+---------+---------+------------------+
 | H-Energy             | 0.88 | 5.8E-04 | 7.7E-03 |  5.4  4.3E-02  OK|
 +----------------------+------+---------+---------+------------------+
 | K-TurbKE             | 0.85 | 7.4E-04 | 4.7E-03 |  5.4  5.5E-02  OK|
 | E-Diss.K             | 0.97 | 1.9E-03 | 3.2E-02 |  8.2  5.8E-03  OK|
 +----------------------+------+---------+---------+------------------+

 ======================================================================
 OUTER LOOP ITERATION =  367 (   11) CPU SECONDS = 2.535E+02 (1.223E+01)
 ----------------------------------------------------------------------
 |       Equation       | Rate | RMS Res | Max Res |  Linear Solution |
 +----------------------+------+---------+---------+------------------+
 | U-Mom                | 0.93 | 2.4E-04 | 2.9E-03 |       7.1E-02  OK|
 | V-Mom                | 0.96 | 2.8E-04 | 2.4E-03 |       6.9E-02  OK|
 | W-Mom                | 0.90 | 9.4E-05 | 1.5E-03 |       6.1E-02  OK|
 | P-Mass               | 0.98 | 1.1E-04 | 1.2E-03 |  8.5  9.0E-02  OK|
 +----------------------+------+---------+---------+------------------+
 | H-Energy             | 0.88 | 5.1E-04 | 6.6E-03 |  5.4  4.2E-02  OK|
 +----------------------+------+---------+---------+------------------+
 | K-TurbKE             | 0.94 | 6.9E-04 | 4.2E-03 |  5.3  6.1E-02  OK|
 | E-Diss.K             | 0.99 | 1.9E-03 | 3.0E-02 |  8.2  7.4E-03  OK|
 +----------------------+------+---------+---------+------------------+

 ======================================================================
 OUTER LOOP ITERATION =  368 (   12) CPU SECONDS = 2.543E+02 (1.303E+01)
 ----------------------------------------------------------------------
 |       Equation       | Rate | RMS Res | Max Res |  Linear Solution |
 +----------------------+------+---------+---------+------------------+
 | U-Mom                | 0.93 | 2.2E-04 | 2.1E-03 |       7.4E-02  OK|
 | V-Mom                | 0.96 | 2.7E-04 | 2.3E-03 |       7.1E-02  OK|
 | W-Mom                | 0.92 | 8.7E-05 | 1.3E-03 |       6.6E-02  OK|
 | P-Mass               | 0.97 | 1.0E-04 | 1.1E-03 |  8.5  9.2E-02  OK|
 +----------------------+------+---------+---------+------------------+
 | H-Energy             | 0.87 | 4.4E-04 | 5.6E-03 |  5.4  4.3E-02  OK|
 +----------------------+------+---------+---------+------------------+
 | K-TurbKE             | 1.00 | 7.0E-04 | 4.1E-03 |  5.4  6.3E-02  OK|
 | E-Diss.K             | 1.00 | 1.9E-03 | 2.9E-02 |  8.3  9.0E-03  OK|
 +----------------------+------+---------+---------+------------------+

 ======================================================================
 OUTER LOOP ITERATION =  369 (   13) CPU SECONDS = 2.551E+02 (1.382E+01)
 ----------------------------------------------------------------------
 |       Equation       | Rate | RMS Res | Max Res |  Linear Solution |
 +----------------------+------+---------+---------+------------------+
 | U-Mom                | 0.94 | 2.1E-04 | 1.6E-03 |       7.6E-02  OK|
 | V-Mom                | 0.95 | 2.6E-04 | 2.2E-03 |       7.2E-02  OK|
 | W-Mom                | 0.94 | 8.2E-05 | 1.2E-03 |       7.0E-02  OK|
 | P-Mass               | 0.96 | 9.8E-05 | 1.0E-03 |  8.5  9.4E-02  OK|
 +----------------------+------+---------+---------+------------------+
 | H-Energy             | 0.88 | 3.9E-04 | 4.5E-03 |  5.4  4.2E-02  OK|
 +----------------------+------+---------+---------+------------------+
 | K-TurbKE             | 1.03 | 7.2E-04 | 4.1E-03 |  5.4  6.2E-02  OK|
 | E-Diss.K             | 1.00 | 1.9E-03 | 2.8E-02 |  8.2  1.0E-02  OK|
 +----------------------+------+---------+---------+------------------+

 ======================================================================
 OUTER LOOP ITERATION =  370 (   14) CPU SECONDS = 2.559E+02 (1.461E+01)
 ----------------------------------------------------------------------
 |       Equation       | Rate | RMS Res | Max Res |  Linear Solution |
 +----------------------+------+---------+---------+------------------+
 | U-Mom                | 0.94 | 2.0E-04 | 1.4E-03 |       7.7E-02  OK|
 | V-Mom                | 0.95 | 2.4E-04 | 2.2E-03 |       7.3E-02  OK|
 | W-Mom                | 0.96 | 7.8E-05 | 1.0E-03 |       7.3E-02  OK|
 | P-Mass               | 0.95 | 9.4E-05 | 9.7E-04 |  8.5  9.6E-02  OK|
 +----------------------+------+---------+---------+------------------+
 | H-Energy             | 0.88 | 3.5E-04 | 4.4E-03 |  5.4  4.2E-02  OK|
 +----------------------+------+---------+---------+------------------+
 | K-TurbKE             | 1.03 | 7.4E-04 | 4.0E-03 |  5.3  6.2E-02  OK|
 | E-Diss.K             | 1.00 | 1.9E-03 | 2.7E-02 |  8.2  1.1E-02  OK|
 +----------------------+------+---------+---------+------------------+

 ======================================================================
 |                        Timescale Information                       |
 ----------------------------------------------------------------------
 |       Equation       |         Type          |      Timescale      |
 +----------------------+-----------------------+---------------------+
 | U-Mom                | Auto Timescale        |     1.78203E-01     |
 | V-Mom                | Auto Timescale        |     1.78203E-01     |
 | W-Mom                | Auto Timescale        |     1.78203E-01     |
 +----------------------+-----------------------+---------------------+
 | H-Energy             | Auto Timescale        |     1.78203E-01     |
 +----------------------+-----------------------+---------------------+
 | K-TurbKE             | Auto Timescale        |     1.78203E-01     |
 | E-Diss.K             | Auto Timescale        |     1.78203E-01     |
 +----------------------+-----------------------+---------------------+

 ======================================================================
 OUTER LOOP ITERATION =  371 (   15) CPU SECONDS = 2.567E+02 (1.541E+01)
 ----------------------------------------------------------------------
 |       Equation       | Rate | RMS Res | Max Res |  Linear Solution |
 +----------------------+------+---------+---------+------------------+
 | U-Mom                | 0.95 | 1.9E-04 | 1.3E-03 |       7.7E-02  OK|
 | V-Mom                | 0.95 | 2.3E-04 | 2.1E-03 |       7.2E-02  OK|
 | W-Mom                | 0.97 | 7.6E-05 | 9.5E-04 |       7.6E-02  OK|
 | P-Mass               | 0.95 | 8.9E-05 | 9.0E-04 |  8.5  9.6E-02  OK|
 +----------------------+------+---------+---------+------------------+
 | H-Energy             | 0.90 | 3.1E-04 | 3.6E-03 |  5.4  4.0E-02  OK|
 +----------------------+------+---------+---------+------------------+
 | K-TurbKE             | 1.02 | 7.6E-04 | 3.9E-03 |  5.4  6.1E-02  OK|
 | E-Diss.K             | 0.98 | 1.9E-03 | 2.6E-02 |  8.2  1.1E-02  OK|
 +----------------------+------+---------+---------+------------------+

 ======================================================================
 OUTER LOOP ITERATION =  372 (   16) CPU SECONDS = 2.575E+02 (1.620E+01)
 ----------------------------------------------------------------------
 |       Equation       | Rate | RMS Res | Max Res |  Linear Solution |
 +----------------------+------+---------+---------+------------------+
 | U-Mom                | 0.95 | 1.8E-04 | 1.3E-03 |       7.7E-02  OK|
 | V-Mom                | 0.95 | 2.2E-04 | 2.0E-03 |       7.2E-02  OK|
 | W-Mom                | 0.99 | 7.6E-05 | 8.9E-04 |       7.8E-02  OK|
 | P-Mass               | 0.94 | 8.3E-05 | 8.3E-04 |  8.5  9.8E-02  OK|
 +----------------------+------+---------+---------+------------------+
 | H-Energy             | 0.91 | 2.8E-04 | 3.0E-03 |  5.4  3.8E-02  OK|
 +----------------------+------+---------+---------+------------------+
 | K-TurbKE             | 1.02 | 7.7E-04 | 3.7E-03 |  5.4  6.1E-02  OK|
 | E-Diss.K             | 0.99 | 1.9E-03 | 2.5E-02 |  8.2  1.2E-02  OK|
 +----------------------+------+---------+---------+------------------+

 ======================================================================
 OUTER LOOP ITERATION =  373 (   17) CPU SECONDS = 2.582E+02 (1.698E+01)
 ----------------------------------------------------------------------
 |       Equation       | Rate | RMS Res | Max Res |  Linear Solution |
 +----------------------+------+---------+---------+------------------+
 | U-Mom                | 0.96 | 1.7E-04 | 1.3E-03 |       2.4E-02  OK|
 | V-Mom                | 0.95 | 2.1E-04 | 2.0E-03 |       2.2E-02  OK|
 | W-Mom                | 1.00 | 7.6E-05 | 8.6E-04 |       2.3E-02  OK|
 | P-Mass               | 0.94 | 7.8E-05 | 7.6E-04 | 12.2  3.1E-02  OK|
 +----------------------+------+---------+---------+------------------+
 | H-Energy             | 0.93 | 2.6E-04 | 2.7E-03 |  5.4  3.7E-02  OK|
 +----------------------+------+---------+---------+------------------+
 | K-TurbKE             | 1.02 | 7.9E-04 | 3.5E-03 |  5.3  6.1E-02  OK|
 | E-Diss.K             | 1.00 | 1.9E-03 | 2.5E-02 |  8.2  1.2E-02  OK|
 +----------------------+------+---------+---------+------------------+

 ======================================================================
 OUTER LOOP ITERATION =  374 (   18) CPU SECONDS = 2.590E+02 (1.778E+01)
 ----------------------------------------------------------------------
 |       Equation       | Rate | RMS Res | Max Res |  Linear Solution |
 +----------------------+------+---------+---------+------------------+
 | U-Mom                | 0.98 | 1.7E-04 | 1.4E-03 |       2.3E-02  OK|
 | V-Mom                | 0.96 | 2.0E-04 | 1.9E-03 |       2.2E-02  OK|
 | W-Mom                | 1.00 | 7.6E-05 | 8.9E-04 |       2.3E-02  OK|
 | P-Mass               | 0.95 | 7.4E-05 | 7.1E-04 | 12.2  3.1E-02  OK|
 +----------------------+------+---------+---------+------------------+
 | H-Energy             | 0.93 | 2.4E-04 | 2.6E-03 |  5.4  3.6E-02  OK|
 +----------------------+------+---------+---------+------------------+
 | K-TurbKE             | 1.01 | 8.0E-04 | 3.1E-03 |  5.3  6.0E-02  OK|
 | E-Diss.K             | 0.98 | 1.8E-03 | 2.3E-02 |  8.2  1.3E-02  OK|
 +----------------------+------+---------+---------+------------------+

 ======================================================================
 OUTER LOOP ITERATION =  375 (   19) CPU SECONDS = 2.598E+02 (1.858E+01)
 ----------------------------------------------------------------------
 |       Equation       | Rate | RMS Res | Max Res |  Linear Solution |
 +----------------------+------+---------+---------+------------------+
 | U-Mom                | 0.97 | 1.6E-04 | 1.4E-03 |       2.3E-02  OK|
 | V-Mom                | 0.96 | 1.9E-04 | 1.8E-03 |       2.2E-02  OK|
 | W-Mom                | 1.02 | 7.7E-05 | 9.3E-04 |       2.4E-02  OK|
 | P-Mass               | 0.95 | 7.1E-05 | 6.5E-04 | 12.2  3.1E-02  OK|
 +----------------------+------+---------+---------+------------------+
 | H-Energy             | 0.95 | 2.3E-04 | 2.6E-03 |  5.4  3.6E-02  OK|
 +----------------------+------+---------+---------+------------------+
 | K-TurbKE             | 1.00 | 8.0E-04 | 2.7E-03 |  5.4  6.0E-02  OK|
 | E-Diss.K             | 0.97 | 1.8E-03 | 2.2E-02 |  8.2  1.3E-02  OK|
 +----------------------+------+---------+---------+------------------+

 ======================================================================
 |                        Timescale Information                       |
 ----------------------------------------------------------------------
 |       Equation       |         Type          |      Timescale      |
 +----------------------+-----------------------+---------------------+
 | U-Mom                | Auto Timescale        |     1.74742E-01     |
 | V-Mom                | Auto Timescale        |     1.74742E-01     |
 | W-Mom                | Auto Timescale        |     1.74742E-01     |
 +----------------------+-----------------------+---------------------+
 | H-Energy             | Auto Timescale        |     1.74742E-01     |
 +----------------------+-----------------------+---------------------+
 | K-TurbKE             | Auto Timescale        |     1.74742E-01     |
 | E-Diss.K             | Auto Timescale        |     1.74742E-01     |
 +----------------------+-----------------------+---------------------+

 ======================================================================
 OUTER LOOP ITERATION =  376 (   20) CPU SECONDS = 2.607E+02 (1.940E+01)
 ----------------------------------------------------------------------
 |       Equation       | Rate | RMS Res | Max Res |  Linear Solution |
 +----------------------+------+---------+---------+------------------+
 | U-Mom                | 0.96 | 1.6E-04 | 1.4E-03 |       2.2E-02  OK|
 | V-Mom                | 0.95 | 1.8E-04 | 1.7E-03 |       2.1E-02  OK|
 | W-Mom                | 1.02 | 7.9E-05 | 9.7E-04 |       2.4E-02  OK|
 | P-Mass               | 0.94 | 6.7E-05 | 5.9E-04 | 12.2  3.1E-02  OK|
 +----------------------+------+---------+---------+------------------+
 | H-Energy             | 0.97 | 2.2E-04 | 2.6E-03 |  5.4  3.6E-02  OK|
 +----------------------+------+---------+---------+------------------+
 | K-TurbKE             | 0.99 | 7.9E-04 | 2.4E-03 |  5.4  5.9E-02  OK|
 | E-Diss.K             | 0.95 | 1.7E-03 | 2.0E-02 |  8.2  1.4E-02  OK|
 +----------------------+------+---------+---------+------------------+

 ======================================================================
 OUTER LOOP ITERATION =  377 (   21) CPU SECONDS = 2.615E+02 (2.022E+01)
 ----------------------------------------------------------------------
 |       Equation       | Rate | RMS Res | Max Res |  Linear Solution |
 +----------------------+------+---------+---------+------------------+
 | U-Mom                | 0.96 | 1.5E-04 | 1.4E-03 |       2.2E-02  OK|
 | V-Mom                | 0.95 | 1.7E-04 | 1.7E-03 |       2.1E-02  OK|
 | W-Mom                | 1.02 | 8.0E-05 | 1.0E-03 |       2.4E-02  OK|
 | P-Mass               | 0.93 | 6.2E-05 | 5.4E-04 | 12.2  3.2E-02  OK|
 +----------------------+------+---------+---------+------------------+
 | H-Energy             | 0.99 | 2.2E-04 | 2.7E-03 |  5.4  3.7E-02  OK|
 +----------------------+------+---------+---------+------------------+
 | K-TurbKE             | 0.99 | 7.8E-04 | 2.3E-03 |  5.4  5.8E-02  OK|
 | E-Diss.K             | 0.96 | 1.6E-03 | 1.9E-02 |  8.2  1.4E-02  OK|
 +----------------------+------+---------+---------+------------------+

 ======================================================================
 OUTER LOOP ITERATION =  378 (   22) CPU SECONDS = 2.623E+02 (2.105E+01)
 ----------------------------------------------------------------------
 |       Equation       | Rate | RMS Res | Max Res |  Linear Solution |
 +----------------------+------+---------+---------+------------------+
 | U-Mom                | 0.96 | 1.4E-04 | 1.4E-03 |       2.2E-02  OK|
 | V-Mom                | 0.95 | 1.6E-04 | 1.6E-03 |       2.0E-02  OK|
 | W-Mom                | 1.02 | 8.2E-05 | 1.1E-03 |       2.4E-02  OK|
 | P-Mass               | 0.93 | 5.8E-05 | 5.0E-04 | 12.2  3.2E-02  OK|
 +----------------------+------+---------+---------+------------------+
 | H-Energy             | 1.00 | 2.2E-04 | 2.8E-03 |  5.4  3.8E-02  OK|
 +----------------------+------+---------+---------+------------------+
 | K-TurbKE             | 0.98 | 7.6E-04 | 2.4E-03 |  5.4  5.8E-02  OK|
 | E-Diss.K             | 0.96 | 1.6E-03 | 1.8E-02 |  8.2  1.4E-02  OK|
 +----------------------+------+---------+---------+------------------+

 ======================================================================
 OUTER LOOP ITERATION =  379 (   23) CPU SECONDS = 2.632E+02 (2.189E+01)
 ----------------------------------------------------------------------
 |       Equation       | Rate | RMS Res | Max Res |  Linear Solution |
 +----------------------+------+---------+---------+------------------+
 | U-Mom                | 0.97 | 1.4E-04 | 1.4E-03 |       2.1E-02  OK|
 | V-Mom                | 0.96 | 1.6E-04 | 1.6E-03 |       2.0E-02  OK|
 | W-Mom                | 1.02 | 8.4E-05 | 1.1E-03 |       2.4E-02  OK|
 | P-Mass               | 0.94 | 5.4E-05 | 4.6E-04 | 12.2  3.3E-02  OK|
 +----------------------+------+---------+---------+------------------+
 | H-Energy             | 1.01 | 2.2E-04 | 2.8E-03 |  5.4  3.9E-02  OK|
 +----------------------+------+---------+---------+------------------+
 | K-TurbKE             | 0.97 | 7.4E-04 | 2.5E-03 |  5.4  5.8E-02  OK|
 | E-Diss.K             | 0.95 | 1.5E-03 | 1.7E-02 |  8.2  1.5E-02  OK|
 +----------------------+------+---------+---------+------------------+

 ======================================================================
 OUTER LOOP ITERATION =  380 (   24) CPU SECONDS = 2.639E+02 (2.267E+01)
 ----------------------------------------------------------------------
 |       Equation       | Rate | RMS Res | Max Res |  Linear Solution |
 +----------------------+------+---------+---------+------------------+
 | U-Mom                | 0.97 | 1.4E-04 | 1.4E-03 |       2.1E-02  OK|
 | V-Mom                | 0.96 | 1.5E-04 | 1.5E-03 |       2.0E-02  OK|
 | W-Mom                | 1.02 | 8.6E-05 | 1.2E-03 |       2.4E-02  OK|
 | P-Mass               | 0.94 | 5.1E-05 | 4.2E-04 | 12.2  3.3E-02  OK|
 +----------------------+------+---------+---------+------------------+
 | H-Energy             | 1.02 | 2.3E-04 | 2.8E-03 |  5.4  4.0E-02  OK|
 +----------------------+------+---------+---------+------------------+
 | K-TurbKE             | 0.97 | 7.2E-04 | 2.5E-03 |  5.4  5.8E-02  OK|
 | E-Diss.K             | 0.95 | 1.4E-03 | 1.6E-02 |  8.2  1.5E-02  OK|
 +----------------------+------+---------+---------+------------------+

 ======================================================================
 |                        Timescale Information                       |
 ----------------------------------------------------------------------
 |       Equation       |         Type          |      Timescale      |
 +----------------------+-----------------------+---------------------+
 | U-Mom                | Auto Timescale        |     1.71780E-01     |
 | V-Mom                | Auto Timescale        |     1.71780E-01     |
 | W-Mom                | Auto Timescale        |     1.71780E-01     |
 +----------------------+-----------------------+---------------------+
 | H-Energy             | Auto Timescale        |     1.71780E-01     |
 +----------------------+-----------------------+---------------------+
 | K-TurbKE             | Auto Timescale        |     1.71780E-01     |
 | E-Diss.K             | Auto Timescale        |     1.71780E-01     |
 +----------------------+-----------------------+---------------------+

 ======================================================================
 OUTER LOOP ITERATION =  381 (   25) CPU SECONDS = 2.647E+02 (2.346E+01)
 ----------------------------------------------------------------------
 |       Equation       | Rate | RMS Res | Max Res |  Linear Solution |
 +----------------------+------+---------+---------+------------------+
 | U-Mom                | 0.97 | 1.3E-04 | 1.3E-03 |       2.0E-02  OK|
 | V-Mom                | 0.97 | 1.5E-04 | 1.4E-03 |       1.9E-02  OK|
 | W-Mom                | 1.02 | 8.8E-05 | 1.2E-03 |       2.3E-02  OK|
 | P-Mass               | 0.94 | 4.8E-05 | 3.8E-04 | 12.2  3.3E-02  OK|
 +----------------------+------+---------+---------+------------------+
 | H-Energy             | 1.02 | 2.3E-04 | 2.9E-03 |  5.3  3.9E-02  OK|
 +----------------------+------+---------+---------+------------------+
 | K-TurbKE             | 0.96 | 6.9E-04 | 2.5E-03 |  5.4  5.7E-02  OK|
 | E-Diss.K             | 0.94 | 1.3E-03 | 1.5E-02 |  8.2  1.5E-02  OK|
 +----------------------+------+---------+---------+------------------+

 ======================================================================
 OUTER LOOP ITERATION =  382 (   26) CPU SECONDS = 2.656E+02 (2.432E+01)
 ----------------------------------------------------------------------
 |       Equation       | Rate | RMS Res | Max Res |  Linear Solution |
 +----------------------+------+---------+---------+------------------+
 | U-Mom                | 0.97 | 1.3E-04 | 1.3E-03 |       1.9E-02  OK|
 | V-Mom                | 0.98 | 1.4E-04 | 1.4E-03 |       1.8E-02  OK|
 | W-Mom                | 1.02 | 9.0E-05 | 1.3E-03 |       2.2E-02  OK|
 | P-Mass               | 0.94 | 4.6E-05 | 3.5E-04 | 12.2  3.4E-02  OK|
 +----------------------+------+---------+---------+------------------+
 | H-Energy             | 1.03 | 2.4E-04 | 2.9E-03 |  5.3  4.0E-02  OK|
 +----------------------+------+---------+---------+------------------+
 | K-TurbKE             | 0.96 | 6.7E-04 | 2.4E-03 |  5.4  5.6E-02  OK|
 | E-Diss.K             | 0.95 | 1.3E-03 | 1.4E-02 |  8.2  1.5E-02  OK|
 +----------------------+------+---------+---------+------------------+

 ======================================================================
 OUTER LOOP ITERATION =  383 (   27) CPU SECONDS = 2.664E+02 (2.513E+01)
 ----------------------------------------------------------------------
 |       Equation       | Rate | RMS Res | Max Res |  Linear Solution |
 +----------------------+------+---------+---------+------------------+
 | U-Mom                | 0.98 | 1.2E-04 | 1.3E-03 |       1.8E-02  OK|
 | V-Mom                | 0.98 | 1.4E-04 | 1.4E-03 |       1.7E-02  OK|
 | W-Mom                | 1.02 | 9.2E-05 | 1.3E-03 |       2.1E-02  OK|
 | P-Mass               | 0.95 | 4.3E-05 | 3.1E-04 | 12.2  3.4E-02  OK|
 +----------------------+------+---------+---------+------------------+
 | H-Energy             | 1.02 | 2.4E-04 | 2.9E-03 |  5.4  4.0E-02  OK|
 +----------------------+------+---------+---------+------------------+
 | K-TurbKE             | 0.96 | 6.4E-04 | 2.4E-03 |  5.3  5.7E-02  OK|
 | E-Diss.K             | 0.94 | 1.2E-03 | 1.3E-02 |  8.2  1.5E-02  OK|
 +----------------------+------+---------+---------+------------------+

 ======================================================================
 OUTER LOOP ITERATION =  384 (   28) CPU SECONDS = 2.672E+02 (2.595E+01)
 ----------------------------------------------------------------------
 |       Equation       | Rate | RMS Res | Max Res |  Linear Solution |
 +----------------------+------+---------+---------+------------------+
 | U-Mom                | 0.98 | 1.2E-04 | 1.2E-03 |       1.8E-02  OK|
 | V-Mom                | 0.99 | 1.4E-04 | 1.4E-03 |       1.7E-02  OK|
 | W-Mom                | 1.02 | 9.4E-05 | 1.4E-03 |       2.1E-02  OK|
 | P-Mass               | 0.96 | 4.1E-05 | 2.8E-04 | 12.2  3.5E-02  OK|
 +----------------------+------+---------+---------+------------------+
 | H-Energy             | 1.02 | 2.5E-04 | 3.0E-03 |  5.4  4.0E-02  OK|
 +----------------------+------+---------+---------+------------------+
 | K-TurbKE             | 0.95 | 6.1E-04 | 2.3E-03 |  5.4  5.7E-02  OK|
 | E-Diss.K             | 0.94 | 1.1E-03 | 1.2E-02 |  8.2  1.5E-02  OK|
 +----------------------+------+---------+---------+------------------+

 ======================================================================
 OUTER LOOP ITERATION =  385 (   29) CPU SECONDS = 2.680E+02 (2.675E+01)
 ----------------------------------------------------------------------
 |       Equation       | Rate | RMS Res | Max Res |  Linear Solution |
 +----------------------+------+---------+---------+------------------+
 | U-Mom                | 0.98 | 1.2E-04 | 1.2E-03 |       1.7E-02  OK|
 | V-Mom                | 0.99 | 1.4E-04 | 1.4E-03 |       1.6E-02  OK|
 | W-Mom                | 1.02 | 9.7E-05 | 1.4E-03 |       2.0E-02  OK|
 | P-Mass               | 0.96 | 4.0E-05 | 2.6E-04 | 12.2  3.5E-02  OK|
 +----------------------+------+---------+---------+------------------+
 | H-Energy             | 1.02 | 2.5E-04 | 3.0E-03 |  5.4  4.0E-02  OK|
 +----------------------+------+---------+---------+------------------+
 | K-TurbKE             | 0.95 | 5.7E-04 | 2.3E-03 |  5.3  5.7E-02  OK|
 | E-Diss.K             | 0.94 | 1.1E-03 | 1.1E-02 |  8.2  1.5E-02  OK|
 +----------------------+------+---------+---------+------------------+

 ======================================================================
 |                        Timescale Information                       |
 ----------------------------------------------------------------------
 |       Equation       |         Type          |      Timescale      |
 +----------------------+-----------------------+---------------------+
 | U-Mom                | Auto Timescale        |     1.69315E-01     |
 | V-Mom                | Auto Timescale        |     1.69315E-01     |
 | W-Mom                | Auto Timescale        |     1.69315E-01     |
 +----------------------+-----------------------+---------------------+
 | H-Energy             | Auto Timescale        |     1.69315E-01     |
 +----------------------+-----------------------+---------------------+
 | K-TurbKE             | Auto Timescale        |     1.69315E-01     |
 | E-Diss.K             | Auto Timescale        |     1.69315E-01     |
 +----------------------+-----------------------+---------------------+

 ======================================================================
 OUTER LOOP ITERATION =  386 (   30) CPU SECONDS = 2.688E+02 (2.756E+01)
 ----------------------------------------------------------------------
 |       Equation       | Rate | RMS Res | Max Res |  Linear Solution |
 +----------------------+------+---------+---------+------------------+
 | U-Mom                | 0.98 | 1.2E-04 | 1.1E-03 |       1.6E-02  OK|
 | V-Mom                | 1.00 | 1.4E-04 | 1.4E-03 |       1.5E-02  OK|
 | W-Mom                | 1.02 | 9.9E-05 | 1.4E-03 |       1.9E-02  OK|
 | P-Mass               | 0.96 | 3.8E-05 | 2.4E-04 | 12.2  3.5E-02  OK|
 +----------------------+------+---------+---------+------------------+
 | H-Energy             | 1.01 | 2.6E-04 | 2.9E-03 |  5.4  3.9E-02  OK|
 +----------------------+------+---------+---------+------------------+
 | K-TurbKE             | 0.94 | 5.4E-04 | 2.2E-03 |  5.4  5.6E-02  OK|
 | E-Diss.K             | 0.93 | 9.7E-04 | 9.8E-03 |  8.2  1.5E-02  OK|
 +----------------------+------+---------+---------+------------------+

 ======================================================================
 OUTER LOOP ITERATION =  387 (   31) CPU SECONDS = 2.696E+02 (2.837E+01)
 ----------------------------------------------------------------------
 |       Equation       | Rate | RMS Res | Max Res |  Linear Solution |
 +----------------------+------+---------+---------+------------------+
 | U-Mom                | 0.99 | 1.2E-04 | 1.0E-03 |       1.6E-02  OK|
 | V-Mom                | 1.00 | 1.4E-04 | 1.3E-03 |       1.4E-02  OK|
 | W-Mom                | 1.02 | 1.0E-04 | 1.4E-03 |       1.8E-02  OK|
 | P-Mass               | 0.96 | 3.7E-05 | 2.2E-04 | 12.2  3.5E-02  OK|
 +----------------------+------+---------+---------+------------------+
 | H-Energy             | 1.01 | 2.6E-04 | 2.9E-03 |  5.4  3.9E-02  OK|
 +----------------------+------+---------+---------+------------------+
 | K-TurbKE             | 0.94 | 5.1E-04 | 2.1E-03 |  5.3  5.6E-02  OK|
 | E-Diss.K             | 0.94 | 9.1E-04 | 8.9E-03 |  8.2  1.5E-02  OK|
 +----------------------+------+---------+---------+------------------+

 ======================================================================
 OUTER LOOP ITERATION =  388 (   32) CPU SECONDS = 2.704E+02 (2.917E+01)
 ----------------------------------------------------------------------
 |       Equation       | Rate | RMS Res | Max Res |  Linear Solution |
 +----------------------+------+---------+---------+------------------+
 | U-Mom                | 0.99 | 1.1E-04 | 9.7E-04 |       1.5E-02  OK|
 | V-Mom                | 1.00 | 1.4E-04 | 1.3E-03 |       1.4E-02  OK|
 | W-Mom                | 1.02 | 1.0E-04 | 1.4E-03 |       1.8E-02  OK|
 | P-Mass               | 0.97 | 3.6E-05 | 2.1E-04 | 12.2  3.6E-02  OK|
 +----------------------+------+---------+---------+------------------+
 | H-Energy             | 1.01 | 2.6E-04 | 3.0E-03 |  5.4  3.8E-02  OK|
 +----------------------+------+---------+---------+------------------+
 | K-TurbKE             | 0.94 | 4.7E-04 | 2.0E-03 |  5.3  5.7E-02  OK|
 | E-Diss.K             | 0.94 | 8.6E-04 | 8.2E-03 |  8.2  1.5E-02  OK|
 +----------------------+------+---------+---------+------------------+

 ======================================================================
 OUTER LOOP ITERATION =  389 (   33) CPU SECONDS = 2.712E+02 (2.997E+01)
 ----------------------------------------------------------------------
 |       Equation       | Rate | RMS Res | Max Res |  Linear Solution |
 +----------------------+------+---------+---------+------------------+
 | U-Mom                | 0.99 | 1.1E-04 | 9.8E-04 |       1.5E-02  OK|
 | V-Mom                | 1.00 | 1.4E-04 | 1.2E-03 |       1.3E-02  OK|
 | W-Mom                | 1.02 | 1.0E-04 | 1.5E-03 |       1.7E-02  OK|
 | P-Mass               | 0.97 | 3.5E-05 | 2.1E-04 | 12.2  3.6E-02  OK|
 +----------------------+------+---------+---------+------------------+
 | H-Energy             | 1.00 | 2.6E-04 | 2.7E-03 |  5.4  3.8E-02  OK|
 +----------------------+------+---------+---------+------------------+
 | K-TurbKE             | 0.93 | 4.4E-04 | 1.9E-03 |  5.3  5.7E-02  OK|
 | E-Diss.K             | 0.94 | 8.0E-04 | 7.6E-03 |  8.2  1.5E-02  OK|
 +----------------------+------+---------+---------+------------------+

 ======================================================================
 OUTER LOOP ITERATION =  390 (   34) CPU SECONDS = 2.720E+02 (3.078E+01)
 ----------------------------------------------------------------------
 |       Equation       | Rate | RMS Res | Max Res |  Linear Solution |
 +----------------------+------+---------+---------+------------------+
 | U-Mom                | 0.99 | 1.1E-04 | 1.0E-03 |       4.9E-02  OK|
 | V-Mom                | 1.00 | 1.4E-04 | 1.3E-03 |       4.4E-02  OK|
 | W-Mom                | 1.01 | 1.1E-04 | 1.6E-03 |       5.4E-02  OK|
 | P-Mass               | 0.97 | 3.4E-05 | 2.1E-04 |  8.5  1.0E-01  OK|
 +----------------------+------+---------+---------+------------------+
 | H-Energy             | 1.00 | 2.6E-04 | 2.4E-03 |  5.4  3.8E-02  OK|
 +----------------------+------+---------+---------+------------------+
 | K-TurbKE             | 0.93 | 4.1E-04 | 1.9E-03 |  5.4  5.7E-02  OK|
 | E-Diss.K             | 0.93 | 7.4E-04 | 6.9E-03 |  8.2  1.5E-02  OK|
 +----------------------+------+---------+---------+------------------+

 ======================================================================
 |                        Timescale Information                       |
 ----------------------------------------------------------------------
 |       Equation       |         Type          |      Timescale      |
 +----------------------+-----------------------+---------------------+
 | U-Mom                | Auto Timescale        |     1.67229E-01     |
 | V-Mom                | Auto Timescale        |     1.67229E-01     |
 | W-Mom                | Auto Timescale        |     1.67229E-01     |
 +----------------------+-----------------------+---------------------+
 | H-Energy             | Auto Timescale        |     1.67229E-01     |
 +----------------------+-----------------------+---------------------+
 | K-TurbKE             | Auto Timescale        |     1.67229E-01     |
 | E-Diss.K             | Auto Timescale        |     1.67229E-01     |
 +----------------------+-----------------------+---------------------+

 ======================================================================
 OUTER LOOP ITERATION =  391 (   35) CPU SECONDS = 2.729E+02 (3.162E+01)
 ----------------------------------------------------------------------
 |       Equation       | Rate | RMS Res | Max Res |  Linear Solution |
 +----------------------+------+---------+---------+------------------+
 | U-Mom                | 1.00 | 1.1E-04 | 1.1E-03 |       1.4E-02  OK|
 | V-Mom                | 1.00 | 1.4E-04 | 1.4E-03 |       1.2E-02  OK|
 | W-Mom                | 1.01 | 1.1E-04 | 1.6E-03 |       1.6E-02  OK|
 | P-Mass               | 0.97 | 3.3E-05 | 2.1E-04 | 12.2  3.9E-02  OK|
 +----------------------+------+---------+---------+------------------+
 | H-Energy             | 1.00 | 2.6E-04 | 2.5E-03 |  5.4  3.7E-02  OK|
 +----------------------+------+---------+---------+------------------+
 | K-TurbKE             | 0.93 | 3.8E-04 | 1.8E-03 |  5.4  5.6E-02  OK|
 | E-Diss.K             | 0.93 | 6.9E-04 | 6.7E-03 |  8.2  1.4E-02  OK|
 +----------------------+------+---------+---------+------------------+

 ======================================================================
 OUTER LOOP ITERATION =  392 (   36) CPU SECONDS = 2.737E+02 (3.242E+01)
 ----------------------------------------------------------------------
 |       Equation       | Rate | RMS Res | Max Res |  Linear Solution |
 +----------------------+------+---------+---------+------------------+
 | U-Mom                | 0.99 | 1.1E-04 | 1.0E-03 |       4.7E-02  OK|
 | V-Mom                | 1.01 | 1.4E-04 | 1.4E-03 |       4.1E-02  OK|
 | W-Mom                | 1.01 | 1.1E-04 | 1.7E-03 |       5.0E-02  OK|
 | P-Mass               | 0.98 | 3.2E-05 | 2.1E-04 |  8.5  9.9E-02  OK|
 +----------------------+------+---------+---------+------------------+
 | H-Energy             | 1.00 | 2.6E-04 | 2.6E-03 |  5.3  3.7E-02  OK|
 +----------------------+------+---------+---------+------------------+
 | K-TurbKE             | 0.93 | 3.6E-04 | 1.8E-03 |  5.4  5.6E-02  OK|
 | E-Diss.K             | 0.93 | 6.4E-04 | 6.1E-03 |  8.2  1.4E-02  OK|
 +----------------------+------+---------+---------+------------------+

 ======================================================================
 OUTER LOOP ITERATION =  393 (   37) CPU SECONDS = 2.745E+02 (3.321E+01)
 ----------------------------------------------------------------------
 |       Equation       | Rate | RMS Res | Max Res |  Linear Solution |
 +----------------------+------+---------+---------+------------------+
 | U-Mom                | 1.01 | 1.1E-04 | 1.1E-03 |       1.3E-02  OK|
 | V-Mom                | 1.00 | 1.4E-04 | 1.4E-03 |       1.1E-02  OK|
 | W-Mom                | 1.01 | 1.1E-04 | 1.7E-03 |       1.4E-02  OK|
 | P-Mass               | 0.97 | 3.1E-05 | 2.1E-04 | 12.2  4.0E-02  OK|
 +----------------------+------+---------+---------+------------------+
 | H-Energy             | 1.00 | 2.7E-04 | 2.7E-03 |  5.3  3.7E-02  OK|
 +----------------------+------+---------+---------+------------------+
 | K-TurbKE             | 0.93 | 3.3E-04 | 1.7E-03 |  5.4  5.6E-02  OK|
 | E-Diss.K             | 0.95 | 6.1E-04 | 5.9E-03 |  8.2  1.4E-02  OK|
 +----------------------+------+---------+---------+------------------+

 ======================================================================
 OUTER LOOP ITERATION =  394 (   38) CPU SECONDS = 2.753E+02 (3.402E+01)
 ----------------------------------------------------------------------
 |       Equation       | Rate | RMS Res | Max Res |  Linear Solution |
 +----------------------+------+---------+---------+------------------+
 | U-Mom                | 0.99 | 1.1E-04 | 9.6E-04 |       4.5E-02  OK|
 | V-Mom                | 1.00 | 1.4E-04 | 1.5E-03 |       3.9E-02  OK|
 | W-Mom                | 1.01 | 1.1E-04 | 1.7E-03 |       4.6E-02  OK|
 | P-Mass               | 0.98 | 3.1E-05 | 2.1E-04 |  8.5  9.8E-02  OK|
 +----------------------+------+---------+---------+------------------+
 | H-Energy             | 1.01 | 2.7E-04 | 2.9E-03 |  5.3  3.6E-02  OK|
 +----------------------+------+---------+---------+------------------+
 | K-TurbKE             | 0.93 | 3.1E-04 | 1.7E-03 |  5.3  5.6E-02  OK|
 | E-Diss.K             | 0.93 | 5.7E-04 | 5.4E-03 |  8.3  1.3E-02  OK|
 +----------------------+------+---------+---------+------------------+

 ======================================================================
 OUTER LOOP ITERATION =  395 (   39) CPU SECONDS = 2.761E+02 (3.483E+01)
 ----------------------------------------------------------------------
 |       Equation       | Rate | RMS Res | Max Res |  Linear Solution |
 +----------------------+------+---------+---------+------------------+
 | U-Mom                | 1.01 | 1.1E-04 | 1.1E-03 |       1.3E-02  OK|
 | V-Mom                | 1.00 | 1.4E-04 | 1.4E-03 |       1.1E-02  OK|
 | W-Mom                | 1.01 | 1.1E-04 | 1.7E-03 |       1.3E-02  OK|
 | P-Mass               | 0.98 | 3.0E-05 | 2.2E-04 | 12.2  4.0E-02  OK|
 +----------------------+------+---------+---------+------------------+
 | H-Energy             | 1.01 | 2.7E-04 | 3.1E-03 |  5.4  3.7E-02  OK|
 +----------------------+------+---------+---------+------------------+
 | K-TurbKE             | 0.94 | 2.9E-04 | 1.7E-03 |  5.4  5.7E-02  OK|
 | E-Diss.K             | 0.95 | 5.4E-04 | 5.2E-03 |  8.2  1.3E-02  OK|
 +----------------------+------+---------+---------+------------------+

 ======================================================================
 |                        Timescale Information                       |
 ----------------------------------------------------------------------
 |       Equation       |         Type          |      Timescale      |
 +----------------------+-----------------------+---------------------+
 | U-Mom                | Auto Timescale        |     1.65365E-01     |
 | V-Mom                | Auto Timescale        |     1.65365E-01     |
 | W-Mom                | Auto Timescale        |     1.65365E-01     |
 +----------------------+-----------------------+---------------------+
 | H-Energy             | Auto Timescale        |     1.65365E-01     |
 +----------------------+-----------------------+---------------------+
 | K-TurbKE             | Auto Timescale        |     1.65365E-01     |
 | E-Diss.K             | Auto Timescale        |     1.65365E-01     |
 +----------------------+-----------------------+---------------------+

 ======================================================================
 OUTER LOOP ITERATION =  396 (   40) CPU SECONDS = 2.770E+02 (3.569E+01)
 ----------------------------------------------------------------------
 |       Equation       | Rate | RMS Res | Max Res |  Linear Solution |
 +----------------------+------+---------+---------+------------------+
 | U-Mom                | 0.99 | 1.1E-04 | 1.1E-03 |       4.4E-02  OK|
 | V-Mom                | 1.00 | 1.4E-04 | 1.4E-03 |       3.8E-02  OK|
 | W-Mom                | 1.01 | 1.1E-04 | 1.7E-03 |       4.3E-02  OK|
 | P-Mass               | 0.99 | 3.0E-05 | 2.2E-04 |  8.5  9.7E-02  OK|
 +----------------------+------+---------+---------+------------------+
 | H-Energy             | 1.00 | 2.7E-04 | 3.1E-03 |  5.4  3.6E-02  OK|
 +----------------------+------+---------+---------+------------------+
 | K-TurbKE             | 0.94 | 2.7E-04 | 1.6E-03 |  5.4  5.6E-02  OK|
 | E-Diss.K             | 0.93 | 5.0E-04 | 4.8E-03 |  8.2  1.2E-02  OK|
 +----------------------+------+---------+---------+------------------+

 ======================================================================
 OUTER LOOP ITERATION =  397 (   41) CPU SECONDS = 2.779E+02 (3.661E+01)
 ----------------------------------------------------------------------
 |       Equation       | Rate | RMS Res | Max Res |  Linear Solution |
 +----------------------+------+---------+---------+------------------+
 | U-Mom                | 1.01 | 1.1E-04 | 1.3E-03 |       1.2E-02  OK|
 | V-Mom                | 0.99 | 1.4E-04 | 1.4E-03 |       1.1E-02  OK|
 | W-Mom                | 1.00 | 1.1E-04 | 1.7E-03 |       1.2E-02  OK|
 | P-Mass               | 0.98 | 2.9E-05 | 2.2E-04 | 12.2  4.0E-02  OK|
 +----------------------+------+---------+---------+------------------+
 | H-Energy             | 1.00 | 2.7E-04 | 3.1E-03 |  5.4  3.6E-02  OK|
 +----------------------+------+---------+---------+------------------+
 | K-TurbKE             | 0.95 | 2.6E-04 | 1.6E-03 |  5.4  5.6E-02  OK|
 | E-Diss.K             | 0.96 | 4.8E-04 | 4.6E-03 |  8.2  1.2E-02  OK|
 +----------------------+------+---------+---------+------------------+

 ======================================================================
 OUTER LOOP ITERATION =  398 (   42) CPU SECONDS = 2.789E+02 (3.761E+01)
 ----------------------------------------------------------------------
 |       Equation       | Rate | RMS Res | Max Res |  Linear Solution |
 +----------------------+------+---------+---------+------------------+
 | U-Mom                | 0.99 | 1.1E-04 | 1.3E-03 |       4.3E-02  OK|
 | V-Mom                | 1.00 | 1.4E-04 | 1.4E-03 |       3.7E-02  OK|
 | W-Mom                | 1.01 | 1.1E-04 | 1.7E-03 |       4.0E-02  OK|
 | P-Mass               | 0.99 | 2.8E-05 | 2.2E-04 |  8.5  9.8E-02  OK|
 +----------------------+------+---------+---------+------------------+
 | H-Energy             | 1.01 | 2.7E-04 | 3.1E-03 |  5.3  3.6E-02  OK|
 +----------------------+------+---------+---------+------------------+
 | K-TurbKE             | 0.95 | 2.5E-04 | 1.6E-03 |  5.4  5.6E-02  OK|
 | E-Diss.K             | 0.95 | 4.6E-04 | 4.3E-03 |  8.2  1.1E-02  OK|
 +----------------------+------+---------+---------+------------------+

 ======================================================================
 OUTER LOOP ITERATION =  399 (   43) CPU SECONDS = 2.797E+02 (3.845E+01)
 ----------------------------------------------------------------------
 |       Equation       | Rate | RMS Res | Max Res |  Linear Solution |
 +----------------------+------+---------+---------+------------------+
 | U-Mom                | 1.01 | 1.1E-04 | 1.3E-03 |       1.2E-02  OK|
 | V-Mom                | 0.99 | 1.4E-04 | 1.3E-03 |       1.1E-02  OK|
 | W-Mom                | 1.00 | 1.1E-04 | 1.7E-03 |       1.1E-02  OK|
 | P-Mass               | 0.98 | 2.8E-05 | 2.2E-04 | 12.2  4.1E-02  OK|
 +----------------------+------+---------+---------+------------------+
 | H-Energy             | 1.00 | 2.7E-04 | 3.1E-03 |  5.3  3.6E-02  OK|
 +----------------------+------+---------+---------+------------------+
[...]
 | P-Mass               | 0.98 | 1.7E-05 | 1.2E-04 | 12.2  4.1E-02  OK|
 +----------------------+------+---------+---------+------------------+
 | H-Energy             | 0.94 | 1.3E-04 | 1.8E-03 |  5.4  4.3E-02  OK|
 +----------------------+------+---------+---------+------------------+
 | K-TurbKE             | 0.96 | 1.3E-04 | 6.4E-04 |  5.4  5.7E-02  OK|
 | E-Diss.K             | 0.99 | 2.3E-04 | 1.8E-03 |  8.2  1.5E-02  OK|
 +----------------------+------+---------+---------+------------------+

 ======================================================================
 OUTER LOOP ITERATION =  449 (   93) CPU SECONDS = 3.209E+02 (7.968E+01)
 ----------------------------------------------------------------------
 |       Equation       | Rate | RMS Res | Max Res |  Linear Solution |
 +----------------------+------+---------+---------+------------------+
 | U-Mom                | 0.96 | 7.0E-05 | 7.4E-04 |       1.8E-02  OK|
 | V-Mom                | 0.98 | 6.0E-05 | 4.3E-04 |       1.8E-02  OK|
 | W-Mom                | 0.92 | 2.4E-05 | 4.4E-04 |       1.6E-02  OK|
 | P-Mass               | 0.98 | 1.7E-05 | 1.2E-04 | 12.2  4.1E-02  OK|
 +----------------------+------+---------+---------+------------------+
 | H-Energy             | 0.94 | 1.2E-04 | 1.7E-03 |  5.3  4.4E-02  OK|
 +----------------------+------+---------+---------+------------------+
 | K-TurbKE             | 0.96 | 1.2E-04 | 6.5E-04 |  5.4  5.8E-02  OK|
 | E-Diss.K             | 0.99 | 2.3E-04 | 1.8E-03 |  8.2  1.5E-02  OK|
 +----------------------+------+---------+---------+------------------+

 ======================================================================
 OUTER LOOP ITERATION =  450 (   94) CPU SECONDS = 3.218E+02 (8.050E+01)
 ----------------------------------------------------------------------
 |       Equation       | Rate | RMS Res | Max Res |  Linear Solution |
 +----------------------+------+---------+---------+------------------+
 | U-Mom                | 0.96 | 6.7E-05 | 6.9E-04 |       1.8E-02  OK|
 | V-Mom                | 0.98 | 5.9E-05 | 4.1E-04 |       1.8E-02  OK|
 | W-Mom                | 0.92 | 2.2E-05 | 4.1E-04 |       1.7E-02  OK|
 | P-Mass               | 0.98 | 1.6E-05 | 1.1E-04 | 12.2  4.2E-02  OK|
 +----------------------+------+---------+---------+------------------+
 | H-Energy             | 0.93 | 1.1E-04 | 1.6E-03 |  5.4  4.4E-02  OK|
 +----------------------+------+---------+---------+------------------+
 | K-TurbKE             | 0.96 | 1.2E-04 | 6.4E-04 |  5.4  6.0E-02  OK|
 | E-Diss.K             | 0.99 | 2.3E-04 | 1.7E-03 |  8.2  1.5E-02  OK|
 +----------------------+------+---------+---------+------------------+

 ======================================================================
 |                        Timescale Information                       |
 ----------------------------------------------------------------------
 |       Equation       |         Type          |      Timescale      |
 +----------------------+-----------------------+---------------------+
 | U-Mom                | Auto Timescale        |     1.48661E-01     |
 | V-Mom                | Auto Timescale        |     1.48661E-01     |
 | W-Mom                | Auto Timescale        |     1.48661E-01     |
 +----------------------+-----------------------+---------------------+
 | H-Energy             | Auto Timescale        |     1.48661E-01     |
 +----------------------+-----------------------+---------------------+
 | K-TurbKE             | Auto Timescale        |     1.48661E-01     |
 | E-Diss.K             | Auto Timescale        |     1.48661E-01     |
 +----------------------+-----------------------+---------------------+

 ======================================================================
 OUTER LOOP ITERATION =  451 (   95) CPU SECONDS = 3.226E+02 (8.132E+01)
 ----------------------------------------------------------------------
 |       Equation       | Rate | RMS Res | Max Res |  Linear Solution |
 +----------------------+------+---------+---------+------------------+
 | U-Mom                | 0.96 | 6.4E-05 | 6.5E-04 |       1.8E-02  OK|
 | V-Mom                | 0.98 | 5.8E-05 | 3.9E-04 |       1.8E-02  OK|
 | W-Mom                | 0.93 | 2.0E-05 | 3.7E-04 |       1.8E-02  OK|
 | P-Mass               | 0.98 | 1.6E-05 | 1.0E-04 | 12.2  4.2E-02  OK|
 +----------------------+------+---------+---------+------------------+
 | H-Energy             | 0.93 | 1.0E-04 | 1.5E-03 |  5.4  4.4E-02  OK|
 +----------------------+------+---------+---------+------------------+
 | K-TurbKE             | 0.96 | 1.1E-04 | 6.0E-04 |  5.3  6.0E-02  OK|
 | E-Diss.K             | 0.99 | 2.2E-04 | 1.7E-03 |  8.2  1.5E-02  OK|
 +----------------------+------+---------+---------+------------------+

 ======================================================================
 OUTER LOOP ITERATION =  452 (   96) CPU SECONDS = 3.234E+02 (8.217E+01)
 ----------------------------------------------------------------------
 |       Equation       | Rate | RMS Res | Max Res |  Linear Solution |
 +----------------------+------+---------+---------+------------------+
 | U-Mom                | 0.96 | 6.1E-05 | 6.0E-04 |       1.8E-02  OK|
 | V-Mom                | 0.98 | 5.6E-05 | 3.6E-04 |       1.8E-02  OK|
 | W-Mom                | 0.93 | 1.9E-05 | 3.4E-04 |       1.8E-02  OK|
 | P-Mass               | 0.98 | 1.6E-05 | 9.2E-05 | 12.2  4.3E-02  OK|
 +----------------------+------+---------+---------+------------------+
 | H-Energy             | 0.93 | 9.6E-05 | 1.4E-03 |  5.3  4.4E-02  OK|
 +----------------------+------+---------+---------+------------------+
 | K-TurbKE             | 0.96 | 1.1E-04 | 5.7E-04 |  5.4  6.1E-02  OK|
 | E-Diss.K             | 0.99 | 2.2E-04 | 1.7E-03 |  8.2  1.5E-02  OK|
 +----------------------+------+---------+---------+------------------+
                   
 CFD Solver finished: Thu Dec  6 14:28:22 2018
 CFD Solver wall clock seconds: 7.9085E+01

 ======================================================================
              Termination and Interrupt Condition Summary
 ======================================================================
    
 CFD Solver: All target criteria reached
   (Equation residuals)

 ======================================================================
              Boundary Flow and Total Source Term Summary
 ======================================================================

 +--------------------------------------------------------------------+
 |                               U-Mom                                |
 +--------------------------------------------------------------------+
 Boundary         : Default Domain Default                 -5.5326E+00
 Boundary         : in1                                     4.1961E-05
 Boundary         : in2                                    -4.5681E-05
 Boundary         : out                                    -6.4743E-02
                                                           -----------
 Domain Imbalance :                                        -5.5973E+00

 +--------------------------------------------------------------------+
 |                               V-Mom                                |
 +--------------------------------------------------------------------+
 Boundary         : Default Domain Default                  1.1090E+02
 Boundary         : in1                                     7.8810E+04
 Boundary         : in2                                    -7.8896E+04
 Boundary         : out                                    -3.1406E+01
                                                           -----------
 Domain Imbalance :                                        -6.5781E+00

 +--------------------------------------------------------------------+
 |                               W-Mom                                |
 +--------------------------------------------------------------------+
 Boundary         : Default Domain Default                 -1.2803E+04
 Boundary         : in1                                    -1.2744E-05
 Boundary         : in2                                    -1.0675E-05
 Boundary         : out                                     1.2818E+04
                                                           -----------
 Domain Imbalance :                                         1.4738E+01

 +--------------------------------------------------------------------+
 |                               P-Mass                               |
 +--------------------------------------------------------------------+
 Boundary         : in1                                     1.5000E+03
 Boundary         : in2                                     1.5000E+03
 Boundary         : out                                    -2.9997E+03
                                                           -----------
 Domain Imbalance :                                         3.1592E-01

 +--------------------------------------------------------------------+
 |                              H-Energy                              |
 +--------------------------------------------------------------------+
 Boundary         : in1                                     1.0569E+08
 Boundary         : in2                                    -8.2484E+07
 Boundary         : out                                    -2.3134E+07
                                                           -----------
 Domain Imbalance :                                         7.4188E+04


 +--------------------------------------------------------------------+
 |                     Normalised Imbalance Summary                   |
 +--------------------------------------------------------------------+
 |       Equation       |      Maximum Flow     |     Imbalance (%)   |
 +--------------------------------------------------------------------+
 | U-Mom                |       7.8896E+04      |       -0.0071       |
 | V-Mom                |       7.8896E+04      |       -0.0083       |
 | W-Mom                |       7.8896E+04      |        0.0187       |
 | P-Mass               |       2.9997E+03      |        0.0105       |
 +----------------------+-----------------------+---------------------+
 | H-Energy             |       1.0569E+08      |        0.0702       |
 +----------------------+-----------------------+---------------------+

 ======================================================================
                     Wall Force and Moment Summary
 ======================================================================
                                                                          
 Notes:
 1. Pressure integrals exclude the reference pressure.  To include
    it, set the expert parameter 'include pref in forces = t'.


 +--------------------------------------------------------------------+
 |                      Pressure Force On Walls                       |
 +--------------------------------------------------------------------+
                                    X-Comp.      Y-Comp.      Z-Comp.

 Domain Group: Default Domain

 Default Domain Default           4.2656E+00  -1.1125E+02   1.2762E+04
                                  -----------  -----------  -----------
 Domain Group Totals :            4.2656E+00  -1.1125E+02   1.2762E+04


 +--------------------------------------------------------------------+
 |                       Viscous Force On Walls                       |
 +--------------------------------------------------------------------+
                                    X-Comp.      Y-Comp.      Z-Comp.

 Domain Group: Default Domain

 Default Domain Default           1.4678E+00   3.5477E-01   4.0183E+01
                                  -----------  -----------  -----------
 Domain Group Totals :            1.4678E+00   3.5477E-01   4.0183E+01


 +--------------------------------------------------------------------+
 |                      Pressure Moment On Walls                      |
 +--------------------------------------------------------------------+
                                    X-Comp.      Y-Comp.      Z-Comp.

 Domain Group: Default Domain

 Default Domain Default           2.3312E+01   3.6500E+01  -1.4021E+05
                                  -----------  -----------  -----------
 Domain Group Totals :            2.3312E+01   3.6500E+01  -1.4021E+05


 +--------------------------------------------------------------------+
 |                       Viscous Moment On Walls                      |
 +--------------------------------------------------------------------+
                                    X-Comp.      Y-Comp.      Z-Comp.

 Domain Group: Default Domain

 Default Domain Default           3.3317E+00   2.9549E+00  -6.6016E+03
                                  -----------  -----------  -----------
 Domain Group Totals :            3.3317E+00   2.9549E+00  -6.6016E+03


 +--------------------------------------------------------------------+
 |                   Locations of Maximum Residuals                   |
 +--------------------------------------------------------------------+
 |       Equation       |      Domain Name      |     Node Number     |
 +--------------------------------------------------------------------+
 | U-Mom                | Default Domain        |          14565      |
 | V-Mom                | Default Domain        |          14752      |
 | W-Mom                | Default Domain        |          13661      |
 | P-Mass               | Default Domain        |          13533      |
 +----------------------+-----------------------+---------------------+
 | H-Energy             | Default Domain        |          13591      |
 +----------------------+-----------------------+---------------------+
 | K-TurbKE             | Default Domain        |           3734      |
 | E-Diss.K             | Default Domain        |          15220      |
 +----------------------+-----------------------+---------------------+

 ======================================================================
 |                     False Transient Information                    |
 +--------------------------------------------------------------------+
 |       Equation       |         Type          | Elapsed Pseudo-Time |
 +--------------------------------------------------------------------+
 | U-Mom                | Auto Timescale        |     1.57665E+01     |
 | V-Mom                | Auto Timescale        |     1.57665E+01     |
 | W-Mom                | Auto Timescale        |     1.57665E+01     |
 +----------------------+-----------------------+---------------------+
 | H-Energy             | Auto Timescale        |     1.57665E+01     |
 +----------------------+-----------------------+---------------------+
 | K-TurbKE             | Auto Timescale        |     1.57665E+01     |
 | E-Diss.K             | Auto Timescale        |     1.57665E+01     |
 +----------------------+-----------------------+---------------------+

 +--------------------------------------------------------------------+
 |                     Average Scale Information                      |
 +--------------------------------------------------------------------+

 Domain Name : Default Domain
     Global Length                                         = 3.2201E+00
     Minimum Extent                                        = 4.0000E+00
     Maximum Extent                                        = 6.0000E+00
     Density                                               = 9.9700E+02
     Dynamic Viscosity                                     = 8.8990E-04
     Velocity                                              = 6.7487E+00
     Advection Time                                        = 4.7714E-01
     Reynolds Number                                       = 2.4347E+07
     Thermal Conductivity                                  = 6.0690E-01
     Specific Heat Capacity at Constant Pressure           = 4.1817E+03
     Prandtl Number                                        = 6.1316E+00
     Temperature Range                                     = 3.0142E+01

 +--------------------------------------------------------------------+
 |                     Variable Range Information                     |
 +--------------------------------------------------------------------+

 Domain Name : Default Domain
 +--------------------------------------------------------------------+
 |      Variable Name                         |    min    |    max    |
 +--------------------------------------------------------------------+
 | Density                                    |  9.97E+02 |  9.97E+02 |
 | Specific Heat Capacity at Constant Pressure|  4.18E+03 |  4.18E+03 |
 | Dynamic Viscosity                          |  8.90E-04 |  8.90E-04 |
 | Thermal Conductivity                       |  6.07E-01 |  6.07E-01 |
 | Static Entropy                             | -1.90E+02 |  2.31E+02 |
 | Velocity u                                 | -8.39E+00 |  8.43E+00 |
 | Velocity v                                 | -8.63E+00 |  8.65E+00 |
 | Velocity w                                 | -5.67E+00 |  2.49E+00 |
 | Pressure                                   | -1.36E+04 |  9.99E+04 |
 | Turbulence Kinetic Energy                  |  3.85E-04 |  4.78E+00 |
 | Turbulence Eddy Dissipation                |  1.96E-03 |  6.53E+01 |
 | Eddy Viscosity                             |  1.87E-03 |  3.61E+02 |
 | Temperature                                |  2.85E+02 |  3.15E+02 |
 | Static Enthalpy                            | -5.53E+04 |  7.07E+04 |
 +--------------------------------------------------------------------+

 +--------------------------------------------------------------------+
 |               CPU Requirements of Numerical Solution               |
 +--------------------------------------------------------------------+

 Subsystem Name                  Discretization       Linear Solution
                                (secs.   %total)     (secs.   %total) 
 ----------------------------------------------------------------------
 Momentum and Mass              2.78E+01  32.4 %     7.81E+00   9.1 %
 Heat Transfer                  9.28E+00  10.8 %     2.77E+00   3.2 %
 TurbKE and Diss.K              1.51E+01  17.6 %     6.55E+00   7.6 %
                                -------- -------     --------  ------
 Subsystem Summary              5.22E+01  60.7 %     1.71E+01  19.9 %

 File Reading                   4.40E-02    0.1 %
 Variable Updates               9.33E+00   10.9 %
 File Writing                   2.79E-01    0.3 %
 Miscellaneous                  6.94E+00    8.1 %
                                --------
 Total                          8.59E+01

 +--------------------------------------------------------------------+
 |                   Job Information at End of Run                    |
 +--------------------------------------------------------------------+

 Host computer:  ENPC-LAB137 (PID:1440)

 Job finished:   Thu Dec  6 14:28:25 2018

 Total wall clock time: 8.590E+01 seconds
             or: (          0:         0:         1:    25.903 )
                 (       Days:     Hours:   Minutes:   Seconds )

End of solution stage.

 +--------------------------------------------------------------------+
 | The results from this run of the ANSYS CFX Solver have been        |
 | written to                                                         |
 | H:/dos/CFD/CW/CFD-Static-Mixer/StaticMixerDX_pending/dp6_CFX_Solu- |
 | tion/Fluid Flow CFX_008.res                                        |
 +--------------------------------------------------------------------+


 +--------------------------------------------------------------------+
 | For CFX runs launched from Workbench, the final locations of       |
 | directories and files generated may differ from those shown.       |
 +--------------------------------------------------------------------+


This run of the ANSYS CFX Solver has finished.
