 This run of the CFX Release 19.1 Solver started at 16:36:42 on 07 Dec
 2018 by user jc2182 on ENPC-LAB118 (intel_xeon64.sse2_winnt) using the
 command:
 
  "C:\Program Files\ANSYS Inc\v191\CFX\bin\perllib\cfx5solve.pl" -batch
    -ccl runInput.ccl -fullname "Fluid Flow CFX_003"
 
 Release 19.1
 
  Point Releases and Patches installed:
  ANSYS, Inc. Products Release 19.1
  SpaceClaim Release 19.1
  Autodyn Release 19.1
  LS-DYNA Release 19.1
  CFD-Post only Release 19.1
  CFX (includes CFD-Post) Release 19.1
  Chemkin Release 19.1
  EnSight Release 19.1
  FENSAP-ICE Release 19.1
  Fluent (includes CFD-Post) Release 19.1
  Forte Release 19.1
  Polyflow (includes CFD-Post) Release 19.1
  TurboGrid Release 19.1
  ICEM CFD Release 19.1
  Customization Files for User Programmable Features Release 19.1
  Mechanical Products Release 19.1
  Icepak (includes CFD-Post) Release 19.1
  Remote Solve Manager Standalone Services Release 19.1
  ACIS Geometry Interface Release 19.1
  Catia, Version 5 Geometry Interface Release 19.1
  NX Geometry Interface Release 19.1
  Parasolid Geometry Interface  Release 19.1
  ANSYS, Inc. License Manager Release 19.1
 
 Setting up CFX Solver run ...
 
 
 +--------------------------------------------------------------------+
 |                                                                    |
 |                    CFX Command Language for Run                    |
 |                                                                    |
 +--------------------------------------------------------------------+
 
 LIBRARY:
   CEL:
     EXPRESSIONS:
       inMassFlow = 1500 [kg s^-1]
     END
   END
   MATERIAL: Water
     Material Description = Water (liquid)
     Material Group = Water Data, Constant Property Liquids
     Option = Pure Substance
     Thermodynamic State = Liquid
     PROPERTIES:
       Option = General Material
       EQUATION OF STATE:
         Density = 997.0 [kg m^-3]
         Molar Mass = 18.02 [kg kmol^-1]
         Option = Value
       END
       SPECIFIC HEAT CAPACITY:
         Option = Value
         Specific Heat Capacity = 4181.7 [J kg^-1 K^-1]
         Specific Heat Type = Constant Pressure
       END
       REFERENCE STATE:
         Option = Specified Point
         Reference Pressure = 1 [atm]
         Reference Specific Enthalpy = 0.0 [J/kg]
         Reference Specific Entropy = 0.0 [J/kg/K]
         Reference Temperature = 25 [C]
       END
       DYNAMIC VISCOSITY:
         Dynamic Viscosity = 8.899E-4 [kg m^-1 s^-1]
         Option = Value
       END
       THERMAL CONDUCTIVITY:
         Option = Value
         Thermal Conductivity = 0.6069 [W m^-1 K^-1]
       END
       ABSORPTION COEFFICIENT:
         Absorption Coefficient = 1.0 [m^-1]
         Option = Value
       END
       SCATTERING COEFFICIENT:
         Option = Value
         Scattering Coefficient = 0.0 [m^-1]
       END
       REFRACTIVE INDEX:
         Option = Value
         Refractive Index = 1.0 [m m^-1]
       END
       THERMAL EXPANSIVITY:
         Option = Value
         Thermal Expansivity = 2.57E-04 [K^-1]
       END
     END
   END
 END
 FLOW: Flow Analysis 1
   SOLUTION UNITS:
     Angle Units = [rad]
     Length Units = [m]
     Mass Units = [kg]
     Solid Angle Units = [sr]
     Temperature Units = [K]
     Time Units = [s]
   END
   ANALYSIS TYPE:
     Option = Steady State
     EXTERNAL SOLVER COUPLING:
       Option = None
     END
   END
   DOMAIN: Default Domain
     Coord Frame = Coord 0
     Domain Type = Fluid
     Location = B17
     BOUNDARY: Default Domain Default
       Boundary Type = WALL
       Location = F12.17,F14.17,F16.17,F19.17,F20.17,F21.17
       BOUNDARY CONDITIONS:
         HEAT TRANSFER:
           Option = Adiabatic
         END
         MASS AND MOMENTUM:
           Option = No Slip Wall
         END
         WALL ROUGHNESS:
           Option = Smooth Wall
         END
       END
     END
     BOUNDARY: in1
       Boundary Type = INLET
       Location = in1
       BOUNDARY CONDITIONS:
         FLOW DIRECTION:
           Option = Normal to Boundary Condition
         END
         FLOW REGIME:
           Option = Subsonic
         END
         HEAT TRANSFER:
           Option = Static Temperature
           Static Temperature = 315 [K]
         END
         MASS AND MOMENTUM:
           Mass Flow Rate = inMassFlow
           Mass Flow Rate Area = As Specified
           Option = Mass Flow Rate
         END
         TURBULENCE:
           Option = Medium Intensity and Eddy Viscosity Ratio
         END
       END
     END
     BOUNDARY: in2
       Boundary Type = INLET
       Location = in2
       BOUNDARY CONDITIONS:
         FLOW DIRECTION:
           Option = Normal to Boundary Condition
         END
         FLOW REGIME:
           Option = Subsonic
         END
         HEAT TRANSFER:
           Option = Static Temperature
           Static Temperature = 285 [K]
         END
         MASS AND MOMENTUM:
           Mass Flow Rate = inMassFlow
           Mass Flow Rate Area = As Specified
           Option = Mass Flow Rate
         END
         TURBULENCE:
           Option = Medium Intensity and Eddy Viscosity Ratio
         END
       END
     END
     BOUNDARY: out
       Boundary Type = OUTLET
       Location = out
       BOUNDARY CONDITIONS:
         FLOW REGIME:
           Option = Subsonic
         END
         MASS AND MOMENTUM:
           Option = Static Pressure
           Relative Pressure = 0 [Pa]
         END
       END
     END
     DOMAIN MODELS:
       BUOYANCY MODEL:
         Option = Non Buoyant
       END
       DOMAIN MOTION:
         Option = Stationary
       END
       MESH DEFORMATION:
         Option = None
       END
       REFERENCE PRESSURE:
         Reference Pressure = 1 [atm]
       END
     END
     FLUID DEFINITION: Fluid 1
       Material = Water
       Option = Material Library
       MORPHOLOGY:
         Option = Continuous Fluid
       END
     END
     FLUID MODELS:
       COMBUSTION MODEL:
         Option = None
       END
       HEAT TRANSFER MODEL:
         Option = Thermal Energy
       END
       THERMAL RADIATION MODEL:
         Option = None
       END
       TURBULENCE MODEL:
         Option = k epsilon
       END
       TURBULENT WALL FUNCTIONS:
         Option = Scalable
       END
     END
   END
   OUTPUT CONTROL:
     RESULTS:
       File Compression Level = Default
       Option = Standard
     END
   END
   SOLVER CONTROL:
     Turbulence Numerics = High Resolution
     ADVECTION SCHEME:
       Option = High Resolution
     END
     CONVERGENCE CONTROL:
       Length Scale Option = Conservative
       Maximum Number of Iterations = 100
       Minimum Number of Iterations = 5
       Timescale Control = Auto Timescale
       Timescale Factor = 1.0
     END
     CONVERGENCE CRITERIA:
       Residual Target = 1.E-4
       Residual Type = RMS
     END
     DYNAMIC MODEL CONTROL:
       Global Dynamic Model Control = On
     END
   END
 END
 COMMAND FILE:
   Version = 19.1
   Results Version = 19.1
 END
 PARAMETERIZATION:
   INPUT FIELD: inMassFlow
     Expression Name = inMassFlow
     Method = Expression
   END
 END
 SIMULATION CONTROL:
   EXECUTION CONTROL:
     EXECUTABLE SELECTION:
       Double Precision = No
       Large Problem = No
     END
     INTERPOLATOR STEP CONTROL:
       Runtime Priority = Standard
       MEMORY CONTROL:
         Memory Allocation Factor = 1.0
       END
     END
     PARALLEL HOST LIBRARY:
       HOST DEFINITION: enpclab118
         Remote Host Name = ENPC-LAB118
         Host Architecture String = winnt-amd64
         Installation Root = C:\Program Files\ANSYS Inc\v%v\CFX
       END
     END
     PARTITIONER STEP CONTROL:
       Multidomain Option = Automatic
       Runtime Priority = Standard
       MEMORY CONTROL:
         Memory Allocation Factor = 1.0
       END
       PARTITION SMOOTHING:
         Maximum Partition Smoothing Sweeps = 100
         Option = Smooth
       END
       PARTITIONING TYPE:
         MeTiS Type = k-way
         Option = MeTiS
         Partition Size Rule = Automatic
       END
     END
     RUN DEFINITION:
       Run Mode = Full
       Solver Input File = Fluid Flow CFX.def
       Solver Results File = \
         H:/dos/CFD/CW/CFD-Static-Mixer/StaticMixerDX_pending/dp6_CFX_Solution\
         /Fluid Flow CFX_003.res
       INITIAL VALUES SPECIFICATION:
         INITIAL VALUES CONTROL:
           Use Mesh From = Solver Input File
           Continue History From = Workbench Initial Values
         END
         INITIAL VALUES: Workbench Initial Values
           Option = Results File
           File Name = Fluid Flow CFX_002.res
         END
       END
     END
     SOLVER STEP CONTROL:
       Runtime Priority = Standard
       MEMORY CONTROL:
         Memory Allocation Factor = 1.0
       END
       PARALLEL ENVIRONMENT:
         Number of Processes = 1
         Start Method = Serial
       END
     END
   END
 END
 
 
 +--------------------------------------------------------------------+
 |                                                                    |
 |                  Interpolation of Initial Values                   |
 |                                                                    |
 +--------------------------------------------------------------------+
 
 


 +--------------------------------------------------------------------+
 |                                                                    |
 |                    ANSYS(R) CFX(R) Interpolator                    |
 |                                                                    |
 | Release 19.1                                                       |
 | Build 19.1 2018-04-17T13:27:50.069000                              |
 | Tue Apr 17 15:02:11 GMTDT 2018                                     |
 |                                                                    |
 |                        Executable Attributes                       |
 |                                                                    |
 |           single-64bit-int32-archfort-optimised-std-lcomp          |
 |                                                                    |
 | (C) 1996-2018 ANSYS, Inc.                                          |
 |                                                                    |
 | All rights reserved. Unauthorized use, distribution or duplication |
 | is prohibited. This product is subject to U.S. laws governing      |
 | export and re-export. For full Legal Notice, see documentation.    |
 +--------------------------------------------------------------------+




 +--------------------------------------------------------------------+
 |                  Job Information at Start of Run                   |
 +--------------------------------------------------------------------+

 Run mode:       serial run

 Host computer:  ENPC-LAB118 (PID:10052)

 Job started:    Fri Dec  7 16:36:43 2018


 +--------------------------------------------------------------------+
 |        Memory Allocated for Run  (Actual usage may be less)        |
 +--------------------------------------------------------------------+

           | Real       | Integer    | Character | Logical  | Double
 ----------+------------+------------+-----------+----------+----------
 Mwords    |       0.84 |       0.99 |      0.20 |     0.01 |     0.05
 Mbytes    |       3.22 |       3.77 |      0.19 |     0.04 |     0.37
 ----------+------------+------------+-----------+----------+----------


 +--------------------------------------------------------------------+
 |                  Host Memory Information (Mbytes)                  |
 +--------------------------------------------------------------------+
 |          Host           |     System     |   Allocated    |   %    |
 +-------------------------+----------------+----------------+--------+
 | ENPC-LAB118             |     16241.86   |         7.58   |   0.05 |
 +-------------------------+----------------+----------------+--------+

 ======================================================================
               Interpolating Onto Domain "Default Domain"
 ======================================================================

 Total Number of Nodes in the Target Domain              =        15567
 Bounding Box Volume of the Target Mesh                  =  9.60000E+01


 Checking all source domains from the source file:
   Target mesh is different from domain "Default Domain".

 Searching for Candidate Source Domains:
   Domain "Default Domain"
     Number of Mapped Nodes                     =        13782 ( 88.5%)
     Bounding Box Overlap Volume                =  9.60000E+01 (100.0%)
   Setting Up Unmapped Nodes:
     Number of Unmapped Nodes                   =         1785 ( 11.5%)

 Start interpolation of variables: 
   Source Domain Name                                    Mapped Nodes
   Default Domain                                        13782 ( 88.5%)

 +--------------------------------------------------------------------+
 |                     Variable Range Information                     |
 +--------------------------------------------------------------------+
 +--------------------------------------------------------------------+
 |      Variable Name                         |    min    |    max    |
 +--------------------------------------------------------------------+
 | Thermal Conductivity                       |  6.07E-01 |  6.07E-01 |
 | Courant Number                             |  1.07E+00 |  3.80E+01 |
 | Density                                    |  9.97E+02 |  9.97E+02 |
 | Static Enthalpy                            | -5.50E+04 |  7.05E+04 |
 | Static Entropy                             | -1.89E+02 |  2.30E+02 |
 | Pressure                                   | -9.08E+03 |  7.94E+04 |
 | Specific Heat Capacity at Constant Pressure|  4.18E+03 |  4.18E+03 |
 | Specific Heat Capacity at Constant Volume  |  4.18E+03 |  4.18E+03 |
 | Turbulence Eddy Dissipation                |  3.67E-04 |  2.17E+02 |
 | Turbulence Eddy Frequency                  |  6.54E+00 |  2.41E+03 |
 | Temperature                                |  2.85E+02 |  3.15E+02 |
 | Turbulence Kinetic Energy                  |  1.18E-04 |  4.37E+00 |
 | Velocity                                   |  3.30E-01 |  7.61E+00 |
 | Dynamic Viscosity                          |  8.90E-04 |  8.90E-04 |
 | Eddy Viscosity                             |  9.70E-04 |  3.23E+02 |
 +--------------------------------------------------------------------+

 +--------------------------------------------------------------------+
 |                 CPU Requirements of Interpolation                  |
 +--------------------------------------------------------------------+

 Interpolation Step              Time    Percentage
                                (secs.   %total)
 ----------------------------------------------------------------------
 Tree Setup                     2.62E-01    7.6 %
 Interpolation                  1.38E+00   40.0 %
 Unmatched Nodes                6.40E-02    1.8 %
 Miscellaneous                  1.76E+00   50.6 %
                                --------
 Total                          3.47E+00

 +--------------------------------------------------------------------+
 |                   Job Information at End of Run                    |
 +--------------------------------------------------------------------+

 Host computer:  ENPC-LAB118 (PID:10052)

 Job finished:   Fri Dec  7 16:36:47 2018

 Total wall clock time: 3.471E+00 seconds
             or: (          0:         0:         0:     3.471 )
                 (       Days:     Hours:   Minutes:   Seconds )

 
 +--------------------------------------------------------------------+
 |                                                                    |
 |                               Solver                               |
 |                                                                    |
 +--------------------------------------------------------------------+
 



 +--------------------------------------------------------------------+
 |                                                                    |
 |                       ANSYS(R) CFX(R) Solver                       |
 |                                                                    |
 | Release 19.1                                                       |
 | Build 19.1 2018-04-17T13:27:50.069000                              |
 | Tue Apr 17 15:02:11 GMTDT 2018                                     |
 |                                                                    |
 |                        Executable Attributes                       |
 |                                                                    |
 |           single-64bit-int32-archfort-optimised-std-lcomp          |
 |                                                                    |
 | (C) 1996-2018 ANSYS, Inc.                                          |
 |                                                                    |
 | All rights reserved. Unauthorized use, distribution or duplication |
 | is prohibited. This product is subject to U.S. laws governing      |
 | export and re-export. For full Legal Notice, see documentation.    |
 +--------------------------------------------------------------------+




 +--------------------------------------------------------------------+
 |                  Job Information at Start of Run                   |
 +--------------------------------------------------------------------+

 Run mode:       serial run

 Host computer:  ENPC-LAB118 (PID:1620)

 Job started:    Fri Dec  7 16:36:50 2018

 +--------------------------------------------------------------------+
 |                        License Information                         |
 +--------------------------------------------------------------------+
 
 License Cap:    ANSYS CFX Solver (Max 128K Nodes)
 License ID:     VIGO_campus_bath_ac_uk-SYSTEM-1456-1340806


 +--------------------------------------------------------------------+
 |        Memory Allocated for Run  (Actual usage may be less)        |
 +--------------------------------------------------------------------+

           | Real       | Integer    | Character | Logical  | Double
 ----------+------------+------------+-----------+----------+----------
 Mwords    |      15.05 |       3.35 |      7.26 |     0.12 |     0.45
 Mbytes    |      57.40 |      12.77 |      6.93 |     0.46 |     3.42
 ----------+------------+------------+-----------+----------+----------


 +--------------------------------------------------------------------+
 |                  Host Memory Information (Mbytes)                  |
 +--------------------------------------------------------------------+
 |          Host           |     System     |   Allocated    |   %    |
 +-------------------------+----------------+----------------+--------+
 | ENPC-LAB118             |     16241.86   |        80.97   |   0.50 |
 +-------------------------+----------------+----------------+--------+


 +--------------------------------------------------------------------+
 |                     ****** Notice ******                           |
 | The Wall Heat Transfer Coefficient written to the results file for |
 | any turbulent phase with heat transfer is based on the turbulent   |
 | wall function coefficient. It is consistent with the Wall Heat Flux|
 | the wall temperature, and the Wall Adjacent Temperature            |
 | (near-wall temperature).  If you would like it to be based on a    |
 | user-specified bulk temperature instead, please set the expert     |
 | parameter "tbulk for htc = <value>".                               |
 +--------------------------------------------------------------------+

 +--------------------------------------------------------------------+
 |                      Topology Simplification                       |
 +--------------------------------------------------------------------+

 +--------------------------------------------------------------------+
 |                       ****** Warning ******                        |
 |                                                                    |
 | Topology simplification is activated with the following            |
 | restrictions:                                                      |
 |                                                                    |
 | - Mesh regions referenced only within User Fortran and NOT         |
 |   in the command file will cause the solver to stop.               |
 | - The solver will stop during any "Edit Run in Progress" step      |
 |   if new 2D regions are referenced.                                |
 +--------------------------------------------------------------------+

 +--------------------------------------------------------------------+
 |                          Mesh Statistics                           |
 +--------------------------------------------------------------------+
 | Domain Name          | Orthog. Angle | Exp. Factor  | Aspect Ratio |
 +----------------------+---------------+--------------+--------------+
 |                      | Minimum [deg] |   Maximum    |    Maximum   |
 +----------------------+---------------+--------------+--------------+
 | Default Domain       |       31.5 ok |        24  ! |        22 OK |
 +----------------------+---------------+--------------+--------------+
 |                      |  %!  %ok  %OK | %!  %ok  %OK | %!  %ok  %OK |
 +----------------------+---------------+--------------+--------------+
 | Default Domain       |   0    2   98 | <1    1   99 |  0    0  100 |
 +----------------------+---------------+--------------+--------------+

 Domain Name : Default Domain

     Total Number of Nodes                                =       15567

     Total Number of Elements                             =       48964
         Total Number of Tetrahedrons                     =       31049
         Total Number of Prisms                           =       17915

     Total Number of Faces                                =        4859

 +--------------------------------------------------------------------+
 |      Initial Conditions Supplied by Fields in the Input Files      |
 +--------------------------------------------------------------------+

 Domain Name : Default Domain
     Courant Number
     Eddy Viscosity
     Pressure
     Specific Heat Capacity at Constant Pressure
     Static Enthalpy
     Static Entropy
     Temperature
     Turbulence Eddy Dissipation
     Turbulence Eddy Frequency
     Turbulence Kinetic Energy
     Velocity

 +--------------------------------------------------------------------+
 |                     Average Scale Information                      |
 +--------------------------------------------------------------------+

 Domain Name : Default Domain
     Global Length                                         = 3.2195E+00
     Minimum Extent                                        = 4.0000E+00
     Maximum Extent                                        = 6.0000E+00
     Density                                               = 9.9700E+02
     Dynamic Viscosity                                     = 8.8990E-04
     Velocity                                              = 5.5593E+00
     Advection Time                                        = 5.7911E-01
     Reynolds Number                                       = 2.0052E+07
     Thermal Conductivity                                  = 6.0690E-01
     Specific Heat Capacity at Constant Pressure           = 4.1817E+03
     Prandtl Number                                        = 6.1316E+00
     Temperature Range                                     = 3.0019E+01

 +--------------------------------------------------------------------+
 |                Checking for Isolated Fluid Regions                 |
 +--------------------------------------------------------------------+
 
 No isolated fluid regions were found.

 +--------------------------------------------------------------------+
 |              The Equations Solved in This Calculation              |
 +--------------------------------------------------------------------+

 Subsystem : Momentum and Mass

   U-Mom
   V-Mom
   W-Mom
   P-Mass

 Subsystem : Heat Transfer

   H-Energy

 Subsystem : TurbKE and Diss.K

   K-TurbKE
   E-Diss.K
                   
 CFD Solver started: Fri Dec  7 16:36:53 2018


 +--------------------------------------------------------------------+
 |                       Convergence History                          |
 +--------------------------------------------------------------------+

 ======================================================================
 |                        Timescale Information                       |
 ----------------------------------------------------------------------
 |       Equation       |         Type          |      Timescale      |
 +----------------------+-----------------------+---------------------+
 | U-Mom                | Auto Timescale        |     1.80519E-01     |
 | V-Mom                | Auto Timescale        |     1.80519E-01     |
 | W-Mom                | Auto Timescale        |     1.80519E-01     |
 +----------------------+-----------------------+---------------------+
 | H-Energy             | Auto Timescale        |     1.80519E-01     |
 +----------------------+-----------------------+---------------------+
 | K-TurbKE             | Auto Timescale        |     1.80519E-01     |
 | E-Diss.K             | Auto Timescale        |     1.80519E-01     |
 +----------------------+-----------------------+---------------------+

 ======================================================================
 OUTER LOOP ITERATION =  197 (    1) CPU SECONDS = 1.218E+02 (3.295E+00)
 ----------------------------------------------------------------------
 |       Equation       | Rate | RMS Res | Max Res |  Linear Solution |
 +----------------------+------+---------+---------+------------------+
 | U-Mom                | 0.00 | 6.6E-03 | 2.2E-01 |       7.9E-02  OK|
 | V-Mom                | 0.00 | 9.1E-03 | 2.9E-01 |       7.0E-02  OK|
 | W-Mom                | 0.00 | 5.1E-03 | 1.9E-01 |       7.3E-02  OK|
 | P-Mass               | 0.00 | 2.9E-03 | 7.7E-02 |  5.3  7.8E-02  OK|
 +----------------------+------+---------+---------+------------------+
 | H-Energy             | 0.00 | 8.3E-03 | 3.0E-01 |  5.5  2.0E-02  OK|
 +----------------------+------+---------+---------+------------------+
 | K-TurbKE             | 0.00 | 6.1E-03 | 5.8E-02 |  5.5  2.9E-02  OK|
 | E-Diss.K             | 0.00 | 5.7E-02 | 7.1E-01 |  7.6  5.7E-03  OK|
 +----------------------+------+---------+---------+------------------+

 ======================================================================
 OUTER LOOP ITERATION =  198 (    2) CPU SECONDS = 1.224E+02 (3.907E+00)
 ----------------------------------------------------------------------
 |       Equation       | Rate | RMS Res | Max Res |  Linear Solution |
 +----------------------+------+---------+---------+------------------+
 | U-Mom                | 0.45 | 3.0E-03 | 6.2E-02 |       5.3E-02  OK|
 | V-Mom                | 0.48 | 4.4E-03 | 4.8E-02 |       5.4E-02  OK|
 | W-Mom                | 0.36 | 1.8E-03 | 7.7E-02 |       1.1E-01  ok|
 | P-Mass               | 0.32 | 9.2E-04 | 2.2E-02 |  9.5  3.3E-02  OK|
 +----------------------+------+---------+---------+------------------+
 | H-Energy             | 0.27 | 2.2E-03 | 4.7E-02 |  5.5  4.0E-02  OK|
 +----------------------+------+---------+---------+------------------+
 | K-TurbKE             | 2.20 | 1.3E-02 | 1.2E-01 |  5.5  1.8E-02  OK|
 | E-Diss.K             | 0.61 | 3.5E-02 | 4.2E-01 |  7.6  2.8E-03  OK|
 +----------------------+------+---------+---------+------------------+

 ======================================================================
 OUTER LOOP ITERATION =  199 (    3) CPU SECONDS = 1.230E+02 (4.470E+00)
 ----------------------------------------------------------------------
 |       Equation       | Rate | RMS Res | Max Res |  Linear Solution |
 +----------------------+------+---------+---------+------------------+
 | U-Mom                | 0.55 | 1.6E-03 | 4.7E-02 |       6.1E-02  OK|
 | V-Mom                | 0.79 | 3.5E-03 | 2.9E-02 |       5.7E-02  OK|
 | W-Mom                | 0.50 | 9.3E-04 | 4.6E-02 |       1.5E-01  ok|
 | P-Mass               | 0.60 | 5.5E-04 | 1.3E-02 |  9.5  3.2E-02  OK|
 +----------------------+------+---------+---------+------------------+
 | H-Energy             | 0.78 | 1.7E-03 | 4.3E-02 |  5.5  3.4E-02  OK|
 +----------------------+------+---------+---------+------------------+
 | K-TurbKE             | 0.45 | 6.0E-03 | 5.7E-02 |  5.5  2.6E-02  OK|
 | E-Diss.K             | 0.33 | 1.2E-02 | 1.2E-01 |  7.6  7.3E-03  OK|
 +----------------------+------+---------+---------+------------------+

 ======================================================================
 OUTER LOOP ITERATION =  200 (    4) CPU SECONDS = 1.236E+02 (5.033E+00)
 ----------------------------------------------------------------------
 |       Equation       | Rate | RMS Res | Max Res |  Linear Solution |
 +----------------------+------+---------+---------+------------------+
 | U-Mom                | 0.67 | 1.1E-03 | 2.6E-02 |       5.2E-02  OK|
 | V-Mom                | 0.53 | 1.8E-03 | 1.8E-02 |       5.0E-02  OK|
 | W-Mom                | 0.63 | 5.8E-04 | 3.0E-02 |       1.2E-01  ok|
 | P-Mass               | 0.59 | 3.3E-04 | 8.7E-03 |  9.5  3.2E-02  OK|
 +----------------------+------+---------+---------+------------------+
 | H-Energy             | 0.83 | 1.4E-03 | 3.7E-02 |  5.5  3.3E-02  OK|
 +----------------------+------+---------+---------+------------------+
 | K-TurbKE             | 0.72 | 4.4E-03 | 2.5E-02 |  5.5  2.7E-02  OK|
 | E-Diss.K             | 0.27 | 3.2E-03 | 4.7E-02 |  7.6  1.2E-02  OK|
 +----------------------+------+---------+---------+------------------+

 ======================================================================
 |                        Timescale Information                       |
 ----------------------------------------------------------------------
 |       Equation       |         Type          |      Timescale      |
 +----------------------+-----------------------+---------------------+
 | U-Mom                | Auto Timescale        |     1.95679E-01     |
 | V-Mom                | Auto Timescale        |     1.95679E-01     |
 | W-Mom                | Auto Timescale        |     1.95679E-01     |
 +----------------------+-----------------------+---------------------+
 | H-Energy             | Auto Timescale        |     1.95679E-01     |
 +----------------------+-----------------------+---------------------+
 | K-TurbKE             | Auto Timescale        |     1.95679E-01     |
 | E-Diss.K             | Auto Timescale        |     1.95679E-01     |
 +----------------------+-----------------------+---------------------+

 ======================================================================
 OUTER LOOP ITERATION =  201 (    5) CPU SECONDS = 1.241E+02 (5.588E+00)
 ----------------------------------------------------------------------
 |       Equation       | Rate | RMS Res | Max Res |  Linear Solution |
 +----------------------+------+---------+---------+------------------+
 | U-Mom                | 0.77 | 8.5E-04 | 1.5E-02 |       3.8E-02  OK|
 | V-Mom                | 0.54 | 1.0E-03 | 1.1E-02 |       4.1E-02  OK|
 | W-Mom                | 0.73 | 4.3E-04 | 1.9E-02 |       9.7E-02  OK|
 | P-Mass               | 0.62 | 2.0E-04 | 5.1E-03 |  9.5  3.1E-02  OK|
 +----------------------+------+---------+---------+------------------+
 | H-Energy             | 0.81 | 1.2E-03 | 3.0E-02 |  5.5  3.6E-02  OK|
 +----------------------+------+---------+---------+------------------+
 | K-TurbKE             | 0.43 | 1.9E-03 | 1.2E-02 |  5.5  2.7E-02  OK|
 | E-Diss.K             | 0.67 | 2.1E-03 | 3.4E-02 |  7.6  1.1E-02  OK|
 +----------------------+------+---------+---------+------------------+

 ======================================================================
 OUTER LOOP ITERATION =  202 (    6) CPU SECONDS = 1.247E+02 (6.143E+00)
 ----------------------------------------------------------------------
 |       Equation       | Rate | RMS Res | Max Res |  Linear Solution |
 +----------------------+------+---------+---------+------------------+
 | U-Mom                | 0.74 | 6.3E-04 | 1.1E-02 |       3.2E-02  OK|
 | V-Mom                | 0.81 | 8.1E-04 | 7.7E-03 |       3.3E-02  OK|
 | W-Mom                | 0.78 | 3.3E-04 | 1.0E-02 |       6.5E-02  OK|
 | P-Mass               | 0.65 | 1.3E-04 | 3.1E-03 |  9.5  2.8E-02  OK|
 +----------------------+------+---------+---------+------------------+
 | H-Energy             | 0.84 | 9.7E-04 | 1.8E-02 |  5.5  3.5E-02  OK|
 +----------------------+------+---------+---------+------------------+
 | K-TurbKE             | 0.66 | 1.2E-03 | 7.2E-03 |  5.5  2.2E-02  OK|
 | E-Diss.K             | 0.96 | 2.0E-03 | 1.6E-02 |  7.6  6.2E-03  OK|
 +----------------------+------+---------+---------+------------------+

 ======================================================================
 OUTER LOOP ITERATION =  203 (    7) CPU SECONDS = 1.253E+02 (6.758E+00)
 ----------------------------------------------------------------------
 |       Equation       | Rate | RMS Res | Max Res |  Linear Solution |
 +----------------------+------+---------+---------+------------------+
 | U-Mom                | 0.79 | 4.9E-04 | 9.0E-03 |       4.0E-02  OK|
 | V-Mom                | 0.82 | 6.6E-04 | 6.6E-03 |       3.6E-02  OK|
 | W-Mom                | 0.83 | 2.7E-04 | 5.0E-03 |       4.6E-02  OK|
 | P-Mass               | 0.71 | 9.4E-05 | 2.0E-03 |  9.5  3.0E-02  OK|
 +----------------------+------+---------+---------+------------------+
 | H-Energy             | 0.87 | 8.4E-04 | 9.4E-03 |  5.5  3.4E-02  OK|
 +----------------------+------+---------+---------+------------------+
 | K-TurbKE             | 0.73 | 9.0E-04 | 7.1E-03 |  5.5  2.0E-02  OK|
 | E-Diss.K             | 0.54 | 1.1E-03 | 9.3E-03 |  7.6  6.9E-03  OK|
 +----------------------+------+---------+---------+------------------+

 ======================================================================
 OUTER LOOP ITERATION =  204 (    8) CPU SECONDS = 1.258E+02 (7.313E+00)
 ----------------------------------------------------------------------
 |       Equation       | Rate | RMS Res | Max Res |  Linear Solution |
 +----------------------+------+---------+---------+------------------+
 | U-Mom                | 0.82 | 4.1E-04 | 6.9E-03 |       4.9E-02  OK|
 | V-Mom                | 0.77 | 5.1E-04 | 5.9E-03 |       4.3E-02  OK|
 | W-Mom                | 0.87 | 2.4E-04 | 4.8E-03 |       5.2E-02  OK|
 | P-Mass               | 0.82 | 7.7E-05 | 1.2E-03 |  9.5  4.3E-02  OK|
 +----------------------+------+---------+---------+------------------+
 | H-Energy             | 0.87 | 7.3E-04 | 7.1E-03 |  5.5  3.3E-02  OK|
 +----------------------+------+---------+---------+------------------+
 | K-TurbKE             | 0.77 | 6.9E-04 | 7.4E-03 |  5.5  2.3E-02  OK|
 | E-Diss.K             | 0.62 | 6.7E-04 | 1.4E-02 |  7.6  7.7E-03  OK|
 +----------------------+------+---------+---------+------------------+

 ======================================================================
 OUTER LOOP ITERATION =  205 (    9) CPU SECONDS = 1.264E+02 (7.870E+00)
 ----------------------------------------------------------------------
 |       Equation       | Rate | RMS Res | Max Res |  Linear Solution |
 +----------------------+------+---------+---------+------------------+
 | U-Mom                | 0.82 | 3.3E-04 | 5.2E-03 |       5.5E-02  OK|
 | V-Mom                | 0.81 | 4.1E-04 | 4.9E-03 |       4.8E-02  OK|
 | W-Mom                | 0.89 | 2.1E-04 | 4.3E-03 |       6.5E-02  OK|
 | P-Mass               | 0.90 | 7.0E-05 | 8.9E-04 |  9.5  5.8E-02  OK|
 +----------------------+------+---------+---------+------------------+
 | H-Energy             | 0.85 | 6.2E-04 | 5.4E-03 |  5.4  3.3E-02  OK|
 +----------------------+------+---------+---------+------------------+
 | K-TurbKE             | 0.83 | 5.8E-04 | 7.4E-03 |  5.5  3.3E-02  OK|
 | E-Diss.K             | 1.08 | 7.3E-04 | 1.8E-02 |  7.6  7.3E-03  OK|
 +----------------------+------+---------+---------+------------------+

 ======================================================================
 |                        Timescale Information                       |
 ----------------------------------------------------------------------
 |       Equation       |         Type          |      Timescale      |
 +----------------------+-----------------------+---------------------+
 | U-Mom                | Auto Timescale        |     1.96666E-01     |
 | V-Mom                | Auto Timescale        |     1.96666E-01     |
 | W-Mom                | Auto Timescale        |     1.96666E-01     |
 +----------------------+-----------------------+---------------------+
 | H-Energy             | Auto Timescale        |     1.96666E-01     |
 +----------------------+-----------------------+---------------------+
 | K-TurbKE             | Auto Timescale        |     1.96666E-01     |
 | E-Diss.K             | Auto Timescale        |     1.96666E-01     |
 +----------------------+-----------------------+---------------------+

 ======================================================================
 OUTER LOOP ITERATION =  206 (   10) CPU SECONDS = 1.269E+02 (8.421E+00)
 ----------------------------------------------------------------------
 |       Equation       | Rate | RMS Res | Max Res |  Linear Solution |
 +----------------------+------+---------+---------+------------------+
 | U-Mom                | 0.84 | 2.8E-04 | 4.0E-03 |       5.9E-02  OK|
 | V-Mom                | 0.87 | 3.6E-04 | 4.0E-03 |       5.2E-02  OK|
 | W-Mom                | 0.89 | 1.9E-04 | 3.6E-03 |       7.8E-02  OK|
 | P-Mass               | 0.93 | 6.4E-05 | 7.4E-04 |  9.5  7.3E-02  OK|
 +----------------------+------+---------+---------+------------------+
 | H-Energy             | 0.87 | 5.4E-04 | 4.8E-03 |  5.5  3.3E-02  OK|
 +----------------------+------+---------+---------+------------------+
 | K-TurbKE             | 0.88 | 5.1E-04 | 7.5E-03 |  5.5  3.9E-02  OK|
 | E-Diss.K             | 1.18 | 8.6E-04 | 2.0E-02 |  7.6  7.5E-03  OK|
 +----------------------+------+---------+---------+------------------+

 ======================================================================
 OUTER LOOP ITERATION =  207 (   11) CPU SECONDS = 1.275E+02 (8.980E+00)
 ----------------------------------------------------------------------
 |       Equation       | Rate | RMS Res | Max Res |  Linear Solution |
 +----------------------+------+---------+---------+------------------+
 | U-Mom                | 0.87 | 2.4E-04 | 3.4E-03 |       6.1E-02  OK|
 | V-Mom                | 0.89 | 3.2E-04 | 3.6E-03 |       5.4E-02  OK|
 | W-Mom                | 0.90 | 1.7E-04 | 2.8E-03 |       8.9E-02  OK|
 | P-Mass               | 0.93 | 6.0E-05 | 7.3E-04 |  9.5  8.5E-02  OK|
 +----------------------+------+---------+---------+------------------+
 | H-Energy             | 0.90 | 4.9E-04 | 5.3E-03 |  5.5  3.2E-02  OK|
 +----------------------+------+---------+---------+------------------+
 | K-TurbKE             | 0.94 | 4.8E-04 | 6.2E-03 |  5.5  3.9E-02  OK|
 | E-Diss.K             | 1.09 | 9.3E-04 | 2.1E-02 |  7.6  8.0E-03  OK|
 +----------------------+------+---------+---------+------------------+

 ======================================================================
 OUTER LOOP ITERATION =  208 (   12) CPU SECONDS = 1.281E+02 (9.537E+00)
 ----------------------------------------------------------------------
 |       Equation       | Rate | RMS Res | Max Res |  Linear Solution |
 +----------------------+------+---------+---------+------------------+
 | U-Mom                | 0.89 | 2.2E-04 | 2.9E-03 |       6.2E-02  OK|
 | V-Mom                | 0.89 | 2.8E-04 | 3.3E-03 |       5.6E-02  OK|
 | W-Mom                | 0.91 | 1.5E-04 | 2.5E-03 |       1.0E-01  OK|
 | P-Mass               | 0.93 | 5.6E-05 | 6.8E-04 |  9.5  9.2E-02  OK|
 +----------------------+------+---------+---------+------------------+
 | H-Energy             | 0.91 | 4.4E-04 | 6.0E-03 |  5.5  3.2E-02  OK|
 +----------------------+------+---------+---------+------------------+
 | K-TurbKE             | 0.98 | 4.7E-04 | 5.2E-03 |  5.5  3.7E-02  OK|
 | E-Diss.K             | 1.01 | 9.5E-04 | 2.1E-02 |  7.6  8.7E-03  OK|
 +----------------------+------+---------+---------+------------------+

 ======================================================================
 OUTER LOOP ITERATION =  209 (   13) CPU SECONDS = 1.286E+02 (1.010E+01)
 ----------------------------------------------------------------------
 |       Equation       | Rate | RMS Res | Max Res |  Linear Solution |
 +----------------------+------+---------+---------+------------------+
 | U-Mom                | 0.91 | 2.0E-04 | 3.1E-03 |       6.2E-02  OK|
 | V-Mom                | 0.89 | 2.5E-04 | 3.0E-03 |       5.7E-02  OK|
 | W-Mom                | 0.91 | 1.4E-04 | 2.4E-03 |       1.1E-01  ok|
 | P-Mass               | 0.93 | 5.2E-05 | 6.3E-04 |  9.5  9.5E-02  OK|
 +----------------------+------+---------+---------+------------------+
 | H-Energy             | 0.92 | 4.1E-04 | 5.7E-03 |  5.5  3.0E-02  OK|
 +----------------------+------+---------+---------+------------------+
 | K-TurbKE             | 1.00 | 4.7E-04 | 4.3E-03 |  5.5  3.6E-02  OK|
 | E-Diss.K             | 0.98 | 9.3E-04 | 2.0E-02 |  7.6  9.1E-03  OK|
 +----------------------+------+---------+---------+------------------+

 ======================================================================
 OUTER LOOP ITERATION =  210 (   14) CPU SECONDS = 1.292E+02 (1.065E+01)
 ----------------------------------------------------------------------
 |       Equation       | Rate | RMS Res | Max Res |  Linear Solution |
 +----------------------+------+---------+---------+------------------+
 | U-Mom                | 0.92 | 1.8E-04 | 3.3E-03 |       6.3E-02  OK|
 | V-Mom                | 0.89 | 2.2E-04 | 3.0E-03 |       5.8E-02  OK|
 | W-Mom                | 0.91 | 1.2E-04 | 2.4E-03 |       1.2E-01  ok|
 | P-Mass               | 0.93 | 4.8E-05 | 5.7E-04 |  9.5  9.7E-02  OK|
 +----------------------+------+---------+---------+------------------+
 | H-Energy             | 0.92 | 3.7E-04 | 4.9E-03 |  5.5  2.9E-02  OK|
 +----------------------+------+---------+---------+------------------+
 | K-TurbKE             | 1.01 | 4.7E-04 | 3.7E-03 |  5.5  3.6E-02  OK|
 | E-Diss.K             | 0.96 | 8.9E-04 | 1.9E-02 |  7.6  9.8E-03  OK|
 +----------------------+------+---------+---------+------------------+

 ======================================================================
 |                        Timescale Information                       |
 ----------------------------------------------------------------------
 |       Equation       |         Type          |      Timescale      |
 +----------------------+-----------------------+---------------------+
 | U-Mom                | Auto Timescale        |     1.94560E-01     |
 | V-Mom                | Auto Timescale        |     1.94560E-01     |
 | W-Mom                | Auto Timescale        |     1.94560E-01     |
 +----------------------+-----------------------+---------------------+
 | H-Energy             | Auto Timescale        |     1.94560E-01     |
 +----------------------+-----------------------+---------------------+
 | K-TurbKE             | Auto Timescale        |     1.94560E-01     |
 | E-Diss.K             | Auto Timescale        |     1.94560E-01     |
 +----------------------+-----------------------+---------------------+

 ======================================================================
 OUTER LOOP ITERATION =  211 (   15) CPU SECONDS = 1.297E+02 (1.121E+01)
 ----------------------------------------------------------------------
 |       Equation       | Rate | RMS Res | Max Res |  Linear Solution |
 +----------------------+------+---------+---------+------------------+
 | U-Mom                | 0.93 | 1.7E-04 | 3.4E-03 |       6.3E-02  OK|
 | V-Mom                | 0.90 | 2.0E-04 | 3.0E-03 |       5.8E-02  OK|
 | W-Mom                | 0.91 | 1.1E-04 | 2.2E-03 |       1.3E-01  ok|
 | P-Mass               | 0.93 | 4.5E-05 | 5.1E-04 |  9.5  9.7E-02  OK|
 +----------------------+------+---------+---------+------------------+
 | H-Energy             | 0.92 | 3.4E-04 | 5.0E-03 |  5.5  2.8E-02  OK|
 +----------------------+------+---------+---------+------------------+
 | K-TurbKE             | 1.00 | 4.7E-04 | 2.8E-03 |  5.5  3.4E-02  OK|
 | E-Diss.K             | 0.94 | 8.3E-04 | 1.7E-02 |  7.6  1.0E-02  OK|
 +----------------------+------+---------+---------+------------------+

 ======================================================================
 OUTER LOOP ITERATION =  212 (   16) CPU SECONDS = 1.303E+02 (1.177E+01)
 ----------------------------------------------------------------------
 |       Equation       | Rate | RMS Res | Max Res |  Linear Solution |
 +----------------------+------+---------+---------+------------------+
 | U-Mom                | 0.94 | 1.6E-04 | 3.4E-03 |       6.3E-02  OK|
 | V-Mom                | 0.91 | 1.8E-04 | 3.0E-03 |       6.0E-02  OK|
 | W-Mom                | 0.91 | 1.0E-04 | 2.1E-03 |       1.4E-01  ok|
 | P-Mass               | 0.93 | 4.2E-05 | 4.6E-04 |  9.5  9.8E-02  OK|
 +----------------------+------+---------+---------+------------------+
 | H-Energy             | 0.92 | 3.2E-04 | 4.7E-03 |  5.5  2.9E-02  OK|
 +----------------------+------+---------+---------+------------------+
 | K-TurbKE             | 1.00 | 4.7E-04 | 2.2E-03 |  5.5  3.4E-02  OK|
 | E-Diss.K             | 0.94 | 7.8E-04 | 1.6E-02 |  7.6  1.0E-02  OK|
 +----------------------+------+---------+---------+------------------+

 ======================================================================
 OUTER LOOP ITERATION =  213 (   17) CPU SECONDS = 1.308E+02 (1.233E+01)
 ----------------------------------------------------------------------
 |       Equation       | Rate | RMS Res | Max Res |  Linear Solution |
 +----------------------+------+---------+---------+------------------+
 | U-Mom                | 0.95 | 1.5E-04 | 3.3E-03 |       6.4E-02  OK|
 | V-Mom                | 0.92 | 1.7E-04 | 2.9E-03 |       6.1E-02  OK|
 | W-Mom                | 0.91 | 9.5E-05 | 1.9E-03 |       1.5E-01  ok|
 | P-Mass               | 0.94 | 3.9E-05 | 4.1E-04 |  9.5  9.9E-02  OK|
 +----------------------+------+---------+---------+------------------+
 | H-Energy             | 0.91 | 2.9E-04 | 4.4E-03 |  5.5  3.0E-02  OK|
 +----------------------+------+---------+---------+------------------+
 | K-TurbKE             | 1.00 | 4.7E-04 | 2.1E-03 |  5.5  3.3E-02  OK|
 | E-Diss.K             | 0.94 | 7.4E-04 | 1.5E-02 |  7.6  1.1E-02  OK|
 +----------------------+------+---------+---------+------------------+

 ======================================================================
 OUTER LOOP ITERATION =  214 (   18) CPU SECONDS = 1.314E+02 (1.289E+01)
 ----------------------------------------------------------------------
 |       Equation       | Rate | RMS Res | Max Res |  Linear Solution |
 +----------------------+------+---------+---------+------------------+
 | U-Mom                | 0.95 | 1.4E-04 | 3.2E-03 |       2.1E-02  OK|
 | V-Mom                | 0.93 | 1.6E-04 | 2.8E-03 |       2.1E-02  OK|
 | W-Mom                | 0.92 | 8.7E-05 | 1.7E-03 |       7.6E-02  OK|
 | P-Mass               | 0.94 | 3.7E-05 | 3.7E-04 | 13.8  3.4E-02  OK|
 +----------------------+------+---------+---------+------------------+
 | H-Energy             | 0.92 | 2.6E-04 | 3.4E-03 |  5.5  3.0E-02  OK|
 +----------------------+------+---------+---------+------------------+
 | K-TurbKE             | 1.00 | 4.7E-04 | 2.0E-03 |  5.5  3.3E-02  OK|
 | E-Diss.K             | 0.98 | 7.2E-04 | 1.4E-02 |  7.6  1.1E-02  OK|
 +----------------------+------+---------+---------+------------------+

 ======================================================================
 OUTER LOOP ITERATION =  215 (   19) CPU SECONDS = 1.320E+02 (1.346E+01)
 ----------------------------------------------------------------------
 |       Equation       | Rate | RMS Res | Max Res |  Linear Solution |
 +----------------------+------+---------+---------+------------------+
 | U-Mom                | 0.96 | 1.4E-04 | 3.1E-03 |       6.3E-02  OK|
 | V-Mom                | 0.94 | 1.5E-04 | 2.6E-03 |       6.0E-02  OK|
 | W-Mom                | 0.93 | 8.1E-05 | 1.6E-03 |       1.4E-01  ok|
 | P-Mass               | 0.98 | 3.6E-05 | 3.4E-04 |  9.5  9.8E-02  OK|
 +----------------------+------+---------+---------+------------------+
 | H-Energy             | 0.92 | 2.4E-04 | 3.2E-03 |  5.5  3.3E-02  OK|
 +----------------------+------+---------+---------+------------------+
 | K-TurbKE             | 0.99 | 4.7E-04 | 1.9E-03 |  5.5  3.3E-02  OK|
 | E-Diss.K             | 0.91 | 6.5E-04 | 1.2E-02 |  7.6  1.2E-02  OK|
 +----------------------+------+---------+---------+------------------+

 ======================================================================
 |                        Timescale Information                       |
 ----------------------------------------------------------------------
 |       Equation       |         Type          |      Timescale      |
 +----------------------+-----------------------+---------------------+
 | U-Mom                | Auto Timescale        |     1.91778E-01     |
 | V-Mom                | Auto Timescale        |     1.91778E-01     |
 | W-Mom                | Auto Timescale        |     1.91778E-01     |
 +----------------------+-----------------------+---------------------+
 | H-Energy             | Auto Timescale        |     1.91778E-01     |
 +----------------------+-----------------------+---------------------+
 | K-TurbKE             | Auto Timescale        |     1.91778E-01     |
 | E-Diss.K             | Auto Timescale        |     1.91778E-01     |
 +----------------------+-----------------------+---------------------+

 ======================================================================
 OUTER LOOP ITERATION =  216 (   20) CPU SECONDS = 1.325E+02 (1.401E+01)
 ----------------------------------------------------------------------
 |       Equation       | Rate | RMS Res | Max Res |  Linear Solution |
 +----------------------+------+---------+---------+------------------+
 | U-Mom                | 0.97 | 1.3E-04 | 3.0E-03 |       2.2E-02  OK|
 | V-Mom                | 0.95 | 1.4E-04 | 2.5E-03 |       2.1E-02  OK|
 | W-Mom                | 0.93 | 7.6E-05 | 1.4E-03 |       8.0E-02  OK|
 | P-Mass               | 0.91 | 3.3E-05 | 3.0E-04 | 13.8  3.4E-02  OK|
 +----------------------+------+---------+---------+------------------+
 | H-Energy             | 0.92 | 2.2E-04 | 2.6E-03 |  5.5  3.3E-02  OK|
 +----------------------+------+---------+---------+------------------+
 | K-TurbKE             | 0.99 | 4.6E-04 | 1.8E-03 |  5.5  3.2E-02  OK|
 | E-Diss.K             | 0.98 | 6.4E-04 | 1.2E-02 |  7.6  1.1E-02  OK|
 +----------------------+------+---------+---------+------------------+

 ======================================================================
 OUTER LOOP ITERATION =  217 (   21) CPU SECONDS = 1.331E+02 (1.459E+01)
 ----------------------------------------------------------------------
 |       Equation       | Rate | RMS Res | Max Res |  Linear Solution |
 +----------------------+------+---------+---------+------------------+
 | U-Mom                | 0.95 | 1.3E-04 | 2.8E-03 |       6.3E-02  OK|
 | V-Mom                | 0.95 | 1.3E-04 | 2.3E-03 |       6.2E-02  OK|
 | W-Mom                | 0.94 | 7.1E-05 | 1.4E-03 |       1.5E-01  ok|
 | P-Mass               | 0.98 | 3.2E-05 | 2.8E-04 |  9.5  9.9E-02  OK|
 +----------------------+------+---------+---------+------------------+
 | H-Energy             | 0.92 | 2.1E-04 | 2.2E-03 |  5.5  3.6E-02  OK|
 +----------------------+------+---------+---------+------------------+
 | K-TurbKE             | 0.98 | 4.6E-04 | 1.9E-03 |  5.5  3.3E-02  OK|
 | E-Diss.K             | 0.91 | 5.8E-04 | 1.1E-02 |  7.6  1.2E-02  OK|
 +----------------------+------+---------+---------+------------------+

 ======================================================================
 OUTER LOOP ITERATION =  218 (   22) CPU SECONDS = 1.337E+02 (1.514E+01)
 ----------------------------------------------------------------------
 |       Equation       | Rate | RMS Res | Max Res |  Linear Solution |
 +----------------------+------+---------+---------+------------------+
 | U-Mom                | 0.98 | 1.2E-04 | 2.6E-03 |       2.2E-02  OK|
 | V-Mom                | 0.96 | 1.3E-04 | 2.2E-03 |       2.3E-02  OK|
 | W-Mom                | 0.95 | 6.7E-05 | 1.3E-03 |       8.3E-02  OK|
 | P-Mass               | 0.91 | 2.9E-05 | 2.4E-04 | 13.8  3.5E-02  OK|
 +----------------------+------+---------+---------+------------------+
 | H-Energy             | 0.92 | 1.9E-04 | 1.9E-03 |  5.5  3.7E-02  OK|
 +----------------------+------+---------+---------+------------------+
 | K-TurbKE             | 0.98 | 4.5E-04 | 1.8E-03 |  5.5  3.3E-02  OK|
 | E-Diss.K             | 0.99 | 5.8E-04 | 1.1E-02 |  7.6  1.1E-02  OK|
 +----------------------+------+---------+---------+------------------+

 ======================================================================
 OUTER LOOP ITERATION =  219 (   23) CPU SECONDS = 1.342E+02 (1.570E+01)
 ----------------------------------------------------------------------
 |       Equation       | Rate | RMS Res | Max Res |  Linear Solution |
 +----------------------+------+---------+---------+------------------+
 | U-Mom                | 0.95 | 1.2E-04 | 2.4E-03 |       2.1E-02  OK|
 | V-Mom                | 0.96 | 1.2E-04 | 2.0E-03 |       2.1E-02  OK|
 | W-Mom                | 0.95 | 6.4E-05 | 1.3E-03 |       7.1E-02  OK|
 | P-Mass               | 0.98 | 2.9E-05 | 2.3E-04 | 13.8  3.3E-02  OK|
 +----------------------+------+---------+---------+------------------+
 | H-Energy             | 0.91 | 1.7E-04 | 1.6E-03 |  5.5  3.9E-02  OK|
 +----------------------+------+---------+---------+------------------+
 | K-TurbKE             | 0.98 | 4.4E-04 | 1.8E-03 |  5.5  3.3E-02  OK|
 | E-Diss.K             | 0.95 | 5.5E-04 | 9.7E-03 |  7.6  1.2E-02  OK|
 +----------------------+------+---------+---------+------------------+

 ======================================================================
 OUTER LOOP ITERATION =  220 (   24) CPU SECONDS = 1.348E+02 (1.628E+01)
 ----------------------------------------------------------------------
 |       Equation       | Rate | RMS Res | Max Res |  Linear Solution |
 +----------------------+------+---------+---------+------------------+
 | U-Mom                | 0.97 | 1.1E-04 | 2.4E-03 |       2.1E-02  OK|
 | V-Mom                | 0.97 | 1.2E-04 | 1.8E-03 |       2.1E-02  OK|
 | W-Mom                | 0.96 | 6.2E-05 | 1.3E-03 |       7.0E-02  OK|
 | P-Mass               | 0.95 | 2.7E-05 | 2.1E-04 | 13.8  3.4E-02  OK|
 +----------------------+------+---------+---------+------------------+
 | H-Energy             | 0.92 | 1.6E-04 | 1.5E-03 |  5.5  4.1E-02  OK|
 +----------------------+------+---------+---------+------------------+
 | K-TurbKE             | 0.97 | 4.2E-04 | 1.8E-03 |  5.5  3.3E-02  OK|
 | E-Diss.K             | 0.95 | 5.2E-04 | 9.1E-03 |  7.6  1.2E-02  OK|
 +----------------------+------+---------+---------+------------------+

 ======================================================================
 |                        Timescale Information                       |
 ----------------------------------------------------------------------
 |       Equation       |         Type          |      Timescale      |
 +----------------------+-----------------------+---------------------+
 | U-Mom                | Auto Timescale        |     1.88979E-01     |
 | V-Mom                | Auto Timescale        |     1.88979E-01     |
 | W-Mom                | Auto Timescale        |     1.88979E-01     |
 +----------------------+-----------------------+---------------------+
 | H-Energy             | Auto Timescale        |     1.88979E-01     |
 +----------------------+-----------------------+---------------------+
 | K-TurbKE             | Auto Timescale        |     1.88979E-01     |
 | E-Diss.K             | Auto Timescale        |     1.88979E-01     |
 +----------------------+-----------------------+---------------------+

 ======================================================================
 OUTER LOOP ITERATION =  221 (   25) CPU SECONDS = 1.354E+02 (1.685E+01)
 ----------------------------------------------------------------------
 |       Equation       | Rate | RMS Res | Max Res |  Linear Solution |
 +----------------------+------+---------+---------+------------------+
 | U-Mom                | 0.97 | 1.1E-04 | 2.3E-03 |       2.1E-02  OK|
 | V-Mom                | 0.96 | 1.1E-04 | 1.7E-03 |       2.1E-02  OK|
 | W-Mom                | 0.96 | 5.9E-05 | 1.2E-03 |       6.9E-02  OK|
 | P-Mass               | 0.95 | 2.6E-05 | 1.9E-04 | 13.8  3.4E-02  OK|
 +----------------------+------+---------+---------+------------------+
 | H-Energy             | 0.93 | 1.5E-04 | 1.4E-03 |  5.5  4.1E-02  OK|
 +----------------------+------+---------+---------+------------------+
 | K-TurbKE             | 0.97 | 4.1E-04 | 1.8E-03 |  5.5  3.2E-02  OK|
 | E-Diss.K             | 0.94 | 4.9E-04 | 8.5E-03 |  7.6  1.2E-02  OK|
 +----------------------+------+---------+---------+------------------+

 ======================================================================
 OUTER LOOP ITERATION =  222 (   26) CPU SECONDS = 1.360E+02 (1.743E+01)
 ----------------------------------------------------------------------
 |       Equation       | Rate | RMS Res | Max Res |  Linear Solution |
 +----------------------+------+---------+---------+------------------+
 | U-Mom                | 0.97 | 1.1E-04 | 2.1E-03 |       2.1E-02  OK|
 | V-Mom                | 0.96 | 1.1E-04 | 1.6E-03 |       2.2E-02  OK|
 | W-Mom                | 0.96 | 5.7E-05 | 1.1E-03 |       6.9E-02  OK|
 | P-Mass               | 0.95 | 2.5E-05 | 1.9E-04 | 13.8  3.4E-02  OK|
 +----------------------+------+---------+---------+------------------+
 | H-Energy             | 0.94 | 1.4E-04 | 1.3E-03 |  5.5  4.2E-02  OK|
 +----------------------+------+---------+---------+------------------+
 | K-TurbKE             | 0.96 | 3.9E-04 | 1.7E-03 |  5.5  3.2E-02  OK|
 | E-Diss.K             | 0.95 | 4.6E-04 | 8.0E-03 |  7.6  1.2E-02  OK|
 +----------------------+------+---------+---------+------------------+

 ======================================================================
 OUTER LOOP ITERATION =  223 (   27) CPU SECONDS = 1.365E+02 (1.800E+01)
 ----------------------------------------------------------------------
 |       Equation       | Rate | RMS Res | Max Res |  Linear Solution |
 +----------------------+------+---------+---------+------------------+
 | U-Mom                | 0.97 | 1.0E-04 | 2.0E-03 |       2.1E-02  OK|
 | V-Mom                | 0.96 | 1.1E-04 | 1.5E-03 |       2.2E-02  OK|
 | W-Mom                | 0.96 | 5.5E-05 | 1.0E-03 |       6.9E-02  OK|
 | P-Mass               | 0.95 | 2.3E-05 | 1.9E-04 | 13.8  3.5E-02  OK|
 +----------------------+------+---------+---------+------------------+
 | H-Energy             | 0.95 | 1.3E-04 | 1.2E-03 |  5.5  4.2E-02  OK|
 +----------------------+------+---------+---------+------------------+
 | K-TurbKE             | 0.96 | 3.8E-04 | 1.7E-03 |  5.5  3.2E-02  OK|
 | E-Diss.K             | 0.95 | 4.4E-04 | 7.6E-03 |  7.6  1.2E-02  OK|
 +----------------------+------+---------+---------+------------------+

 ======================================================================
 OUTER LOOP ITERATION =  224 (   28) CPU SECONDS = 1.371E+02 (1.858E+01)
 ----------------------------------------------------------------------
 |       Equation       | Rate | RMS Res | Max Res |  Linear Solution |
 +----------------------+------+---------+---------+------------------+
 | U-Mom                | 0.97 | 1.0E-04 | 1.9E-03 |       2.2E-02  OK|
 | V-Mom                | 0.96 | 1.0E-04 | 1.4E-03 |       2.3E-02  OK|
 | W-Mom                | 0.96 | 5.3E-05 | 9.1E-04 |       7.0E-02  OK|
 | P-Mass               | 0.96 | 2.2E-05 | 1.9E-04 | 13.8  3.6E-02  OK|
 +----------------------+------+---------+---------+------------------+
 | H-Energy             | 0.95 | 1.3E-04 | 1.2E-03 |  5.5  4.3E-02  OK|
 +----------------------+------+---------+---------+------------------+
 | K-TurbKE             | 0.96 | 3.6E-04 | 1.6E-03 |  5.5  3.2E-02  OK|
 | E-Diss.K             | 0.95 | 4.2E-04 | 7.1E-03 |  7.6  1.2E-02  OK|
 +----------------------+------+---------+---------+------------------+

 ======================================================================
 OUTER LOOP ITERATION =  225 (   29) CPU SECONDS = 1.377E+02 (1.915E+01)
 ----------------------------------------------------------------------
 |       Equation       | Rate | RMS Res | Max Res |  Linear Solution |
 +----------------------+------+---------+---------+------------------+
 | U-Mom                | 0.97 | 9.8E-05 | 1.7E-03 |       2.2E-02  OK|
 | V-Mom                | 0.96 | 9.9E-05 | 1.3E-03 |       2.3E-02  OK|
 | W-Mom                | 0.96 | 5.1E-05 | 8.4E-04 |       7.1E-02  OK|
 | P-Mass               | 0.96 | 2.1E-05 | 1.9E-04 | 13.8  3.6E-02  OK|
 +----------------------+------+---------+---------+------------------+
 | H-Energy             | 0.96 | 1.2E-04 | 1.2E-03 |  5.5  4.2E-02  OK|
 +----------------------+------+---------+---------+------------------+
 | K-TurbKE             | 0.96 | 3.4E-04 | 1.6E-03 |  5.5  3.3E-02  OK|
 | E-Diss.K             | 0.95 | 4.0E-04 | 6.7E-03 |  7.6  1.2E-02  OK|
 +----------------------+------+---------+---------+------------------+

 ======================================================================
 |                        Timescale Information                       |
 ----------------------------------------------------------------------
 |       Equation       |         Type          |      Timescale      |
 +----------------------+-----------------------+---------------------+
 | U-Mom                | Auto Timescale        |     1.86385E-01     |
 | V-Mom                | Auto Timescale        |     1.86385E-01     |
 | W-Mom                | Auto Timescale        |     1.86385E-01     |
 +----------------------+-----------------------+---------------------+
 | H-Energy             | Auto Timescale        |     1.86385E-01     |
 +----------------------+-----------------------+---------------------+
 | K-TurbKE             | Auto Timescale        |     1.86385E-01     |
 | E-Diss.K             | Auto Timescale        |     1.86385E-01     |
 +----------------------+-----------------------+---------------------+

 ======================================================================
 OUTER LOOP ITERATION =  226 (   30) CPU SECONDS = 1.382E+02 (1.973E+01)
 ----------------------------------------------------------------------
 |       Equation       | Rate | RMS Res | Max Res |  Linear Solution |
 +----------------------+------+---------+---------+------------------+
 | U-Mom                | 0.97 | 9.5E-05 | 1.6E-03 |       2.2E-02  OK|
 | V-Mom                | 0.97 | 9.5E-05 | 1.2E-03 |       2.3E-02  OK|
 | W-Mom                | 0.96 | 4.9E-05 | 8.2E-04 |       7.0E-02  OK|
 | P-Mass               | 0.96 | 2.1E-05 | 1.9E-04 | 13.8  3.6E-02  OK|
 +----------------------+------+---------+---------+------------------+
 | H-Energy             | 0.96 | 1.2E-04 | 1.2E-03 |  5.5  4.1E-02  OK|
 +----------------------+------+---------+---------+------------------+
 | K-TurbKE             | 0.95 | 3.3E-04 | 1.5E-03 |  5.5  3.2E-02  OK|
 | E-Diss.K             | 0.94 | 3.7E-04 | 6.2E-03 |  7.6  1.2E-02  OK|
 +----------------------+------+---------+---------+------------------+

 ======================================================================
 OUTER LOOP ITERATION =  227 (   31) CPU SECONDS = 1.388E+02 (2.031E+01)
 ----------------------------------------------------------------------
 |       Equation       | Rate | RMS Res | Max Res |  Linear Solution |
 +----------------------+------+---------+---------+------------------+
 | U-Mom                | 0.97 | 9.2E-05 | 1.4E-03 |       2.2E-02  OK|
 | V-Mom                | 0.97 | 9.2E-05 | 1.1E-03 |       2.3E-02  OK|
 | W-Mom                | 0.97 | 4.7E-05 | 7.9E-04 |       7.1E-02  OK|
 | P-Mass               | 0.96 | 2.0E-05 | 1.8E-04 | 13.8  3.7E-02  OK|
 +----------------------+------+---------+---------+------------------+
 | H-Energy             | 0.97 | 1.1E-04 | 1.2E-03 |  5.5  4.1E-02  OK|
 +----------------------+------+---------+---------+------------------+
 | K-TurbKE             | 0.95 | 3.1E-04 | 1.5E-03 |  5.4  3.2E-02  OK|
 | E-Diss.K             | 0.95 | 3.5E-04 | 5.8E-03 |  7.6  1.2E-02  OK|
 +----------------------+------+---------+---------+------------------+

 ======================================================================
 OUTER LOOP ITERATION =  228 (   32) CPU SECONDS = 1.394E+02 (2.088E+01)
 ----------------------------------------------------------------------
 |       Equation       | Rate | RMS Res | Max Res |  Linear Solution |
 +----------------------+------+---------+---------+------------------+
 | U-Mom                | 0.97 | 9.0E-05 | 1.3E-03 |       2.2E-02  OK|
 | V-Mom                | 0.97 | 8.9E-05 | 9.8E-04 |       2.3E-02  OK|
 | W-Mom                | 0.97 | 4.6E-05 | 7.5E-04 |       7.3E-02  OK|
 | P-Mass               | 0.97 | 1.9E-05 | 1.8E-04 | 13.8  3.8E-02  OK|
 +----------------------+------+---------+---------+------------------+
 | H-Energy             | 0.98 | 1.1E-04 | 1.2E-03 |  5.5  4.1E-02  OK|
 +----------------------+------+---------+---------+------------------+
 | K-TurbKE             | 0.95 | 3.0E-04 | 1.4E-03 |  5.5  3.3E-02  OK|
 | E-Diss.K             | 0.95 | 3.3E-04 | 5.4E-03 |  7.6  1.2E-02  OK|
 +----------------------+------+---------+---------+------------------+

 ======================================================================
 OUTER LOOP ITERATION =  229 (   33) CPU SECONDS = 1.400E+02 (2.146E+01)
 ----------------------------------------------------------------------
 |       Equation       | Rate | RMS Res | Max Res |  Linear Solution |
 +----------------------+------+---------+---------+------------------+
 | U-Mom                | 0.98 | 8.7E-05 | 1.1E-03 |       2.2E-02  OK|
 | V-Mom                | 0.97 | 8.6E-05 | 8.7E-04 |       2.4E-02  OK|
 | W-Mom                | 0.97 | 4.4E-05 | 7.0E-04 |       7.5E-02  OK|
 | P-Mass               | 0.97 | 1.9E-05 | 1.7E-04 | 13.8  3.9E-02  OK|
 +----------------------+------+---------+---------+------------------+
 | H-Energy             | 0.98 | 1.1E-04 | 1.2E-03 |  5.5  4.0E-02  OK|
 +----------------------+------+---------+---------+------------------+
 | K-TurbKE             | 0.95 | 2.8E-04 | 1.4E-03 |  5.5  3.3E-02  OK|
 | E-Diss.K             | 0.95 | 3.2E-04 | 5.0E-03 |  7.6  1.2E-02  OK|
 +----------------------+------+---------+---------+------------------+

 ======================================================================
 OUTER LOOP ITERATION =  230 (   34) CPU SECONDS = 1.405E+02 (2.203E+01)
 ----------------------------------------------------------------------
 |       Equation       | Rate | RMS Res | Max Res |  Linear Solution |
 +----------------------+------+---------+---------+------------------+
 | U-Mom                | 0.98 | 8.5E-05 | 9.9E-04 |       2.2E-02  OK|
 | V-Mom                | 0.97 | 8.4E-05 | 7.7E-04 |       2.4E-02  OK|
 | W-Mom                | 0.97 | 4.3E-05 | 6.4E-04 |       7.7E-02  OK|
 | P-Mass               | 0.97 | 1.8E-05 | 1.7E-04 | 13.8  3.9E-02  OK|
 +----------------------+------+---------+---------+------------------+
 | H-Energy             | 0.99 | 1.1E-04 | 1.3E-03 |  5.5  4.0E-02  OK|
 +----------------------+------+---------+---------+------------------+
 | K-TurbKE             | 0.95 | 2.7E-04 | 1.4E-03 |  5.4  3.3E-02  OK|
 | E-Diss.K             | 0.95 | 3.0E-04 | 4.8E-03 |  7.6  1.2E-02  OK|
 +----------------------+------+---------+---------+------------------+

 ======================================================================
 |                        Timescale Information                       |
 ----------------------------------------------------------------------
 |       Equation       |         Type          |      Timescale      |
 +----------------------+-----------------------+---------------------+
 | U-Mom                | Auto Timescale        |     1.84000E-01     |
 | V-Mom                | Auto Timescale        |     1.84000E-01     |
 | W-Mom                | Auto Timescale        |     1.84000E-01     |
 +----------------------+-----------------------+---------------------+
 | H-Energy             | Auto Timescale        |     1.84000E-01     |
 +----------------------+-----------------------+---------------------+
 | K-TurbKE             | Auto Timescale        |     1.84000E-01     |
 | E-Diss.K             | Auto Timescale        |     1.84000E-01     |
 +----------------------+-----------------------+---------------------+

 ======================================================================
 OUTER LOOP ITERATION =  231 (   35) CPU SECONDS = 1.411E+02 (2.260E+01)
 ----------------------------------------------------------------------
 |       Equation       | Rate | RMS Res | Max Res |  Linear Solution |
 +----------------------+------+---------+---------+------------------+
 | U-Mom                | 0.98 | 8.3E-05 | 8.6E-04 |       2.1E-02  OK|
 | V-Mom                | 0.97 | 8.2E-05 | 6.7E-04 |       2.3E-02  OK|
 | W-Mom                | 0.97 | 4.1E-05 | 6.3E-04 |       7.7E-02  OK|
 | P-Mass               | 0.98 | 1.8E-05 | 1.6E-04 | 13.8  3.9E-02  OK|
 +----------------------+------+---------+---------+------------------+
 | H-Energy             | 0.99 | 1.0E-04 | 1.4E-03 |  5.5  3.9E-02  OK|
 +----------------------+------+---------+---------+------------------+
 | K-TurbKE             | 0.95 | 2.5E-04 | 1.4E-03 |  5.4  3.3E-02  OK|
 | E-Diss.K             | 0.94 | 2.8E-04 | 4.5E-03 |  7.6  1.2E-02  OK|
 +----------------------+------+---------+---------+------------------+

 ======================================================================
 OUTER LOOP ITERATION =  232 (   36) CPU SECONDS = 1.417E+02 (2.317E+01)
 ----------------------------------------------------------------------
 |       Equation       | Rate | RMS Res | Max Res |  Linear Solution |
 +----------------------+------+---------+---------+------------------+
 | U-Mom                | 0.98 | 8.2E-05 | 7.7E-04 |       2.1E-02  OK|
 | V-Mom                | 0.98 | 8.0E-05 | 6.1E-04 |       2.3E-02  OK|
 | W-Mom                | 0.97 | 4.0E-05 | 6.3E-04 |       7.9E-02  OK|
 | P-Mass               | 0.98 | 1.7E-05 | 1.6E-04 | 13.8  4.0E-02  OK|
 +----------------------+------+---------+---------+------------------+
 | H-Energy             | 0.99 | 1.0E-04 | 1.4E-03 |  5.5  3.8E-02  OK|
 +----------------------+------+---------+---------+------------------+
 | K-TurbKE             | 0.95 | 2.4E-04 | 1.3E-03 |  5.4  3.3E-02  OK|
 | E-Diss.K             | 0.95 | 2.7E-04 | 4.2E-03 |  7.6  1.2E-02  OK|
 +----------------------+------+---------+---------+------------------+

 ======================================================================
 OUTER LOOP ITERATION =  233 (   37) CPU SECONDS = 1.423E+02 (2.374E+01)
 ----------------------------------------------------------------------
 |       Equation       | Rate | RMS Res | Max Res |  Linear Solution |
 +----------------------+------+---------+---------+------------------+
 | U-Mom                | 0.98 | 8.0E-05 | 7.7E-04 |       2.1E-02  OK|
 | V-Mom                | 0.98 | 7.8E-05 | 6.1E-04 |       2.3E-02  OK|
 | W-Mom                | 0.97 | 3.9E-05 | 6.3E-04 |       8.1E-02  OK|
 | P-Mass               | 0.98 | 1.7E-05 | 1.5E-04 | 13.8  4.0E-02  OK|
 +----------------------+------+---------+---------+------------------+
 | H-Energy             | 0.99 | 1.0E-04 | 1.5E-03 |  5.5  3.7E-02  OK|
 +----------------------+------+---------+---------+------------------+
 | K-TurbKE             | 0.95 | 2.3E-04 | 1.3E-03 |  5.4  3.3E-02  OK|
 | E-Diss.K             | 0.95 | 2.6E-04 | 4.0E-03 |  7.6  1.2E-02  OK|
 +----------------------+------+---------+---------+------------------+

 ======================================================================
 OUTER LOOP ITERATION =  234 (   38) CPU SECONDS = 1.428E+02 (2.433E+01)
 ----------------------------------------------------------------------
 |       Equation       | Rate | RMS Res | Max Res |  Linear Solution |
 +----------------------+------+---------+---------+------------------+
 | U-Mom                | 0.98 | 7.9E-05 | 7.8E-04 |       2.1E-02  OK|
 | V-Mom                | 0.98 | 7.7E-05 | 6.1E-04 |       2.3E-02  OK|
 | W-Mom                | 0.97 | 3.8E-05 | 6.2E-04 |       8.4E-02  OK|
 | P-Mass               | 0.98 | 1.7E-05 | 1.5E-04 | 13.8  4.1E-02  OK|
 +----------------------+------+---------+---------+------------------+
 | H-Energy             | 1.00 | 1.0E-04 | 1.6E-03 |  5.5  3.6E-02  OK|
 +----------------------+------+---------+---------+------------------+
 | K-TurbKE             | 0.95 | 2.2E-04 | 1.2E-03 |  5.5  3.3E-02  OK|
 | E-Diss.K             | 0.95 | 2.4E-04 | 3.8E-03 |  7.6  1.2E-02  OK|
 +----------------------+------+---------+---------+------------------+

 ======================================================================
 OUTER LOOP ITERATION =  235 (   39) CPU SECONDS = 1.434E+02 (2.490E+01)
 ----------------------------------------------------------------------
 |       Equation       | Rate | RMS Res | Max Res |  Linear Solution |
 +----------------------+------+---------+---------+------------------+
 | U-Mom                | 0.98 | 7.7E-05 | 7.9E-04 |       2.1E-02  OK|
 | V-Mom                | 0.98 | 7.5E-05 | 6.1E-04 |       2.3E-02  OK|
 | W-Mom                | 0.97 | 3.7E-05 | 6.1E-04 |       8.6E-02  OK|
 | P-Mass               | 0.98 | 1.6E-05 | 1.4E-04 | 13.8  4.1E-02  OK|
 +----------------------+------+---------+---------+------------------+
 | H-Energy             | 1.00 | 1.0E-04 | 1.8E-03 |  5.5  3.6E-02  OK|
 +----------------------+------+---------+---------+------------------+
 | K-TurbKE             | 0.95 | 2.1E-04 | 1.2E-03 |  5.5  3.3E-02  OK|
 | E-Diss.K             | 0.95 | 2.3E-04 | 3.6E-03 |  7.6  1.2E-02  OK|
 +----------------------+------+---------+---------+------------------+

 ======================================================================
 |                        Timescale Information                       |
 ----------------------------------------------------------------------
 |       Equation       |         Type          |      Timescale      |
 +----------------------+-----------------------+---------------------+
 | U-Mom                | Auto Timescale        |     1.81797E-01     |
 | V-Mom                | Auto Timescale        |     1.81797E-01     |
 | W-Mom                | Auto Timescale        |     1.81797E-01     |
 +----------------------+-----------------------+---------------------+
 | H-Energy             | Auto Timescale        |     1.81797E-01     |
 +----------------------+-----------------------+---------------------+
 | K-TurbKE             | Auto Timescale        |     1.81797E-01     |
 | E-Diss.K             | Auto Timescale        |     1.81797E-01     |
 +----------------------+-----------------------+---------------------+

 ======================================================================
 OUTER LOOP ITERATION =  236 (   40) CPU SECONDS = 1.440E+02 (2.547E+01)
 ----------------------------------------------------------------------
 |       Equation       | Rate | RMS Res | Max Res |  Linear Solution |
 +----------------------+------+---------+---------+------------------+
 | U-Mom                | 0.98 | 7.6E-05 | 8.0E-04 |       2.1E-02  OK|
 | V-Mom                | 0.98 | 7.4E-05 | 6.0E-04 |       2.3E-02  OK|
 | W-Mom                | 0.97 | 3.5E-05 | 6.0E-04 |       8.7E-02  OK|
 | P-Mass               | 0.99 | 1.6E-05 | 1.4E-04 | 13.8  4.1E-02  OK|
 +----------------------+------+---------+---------+------------------+
 | H-Energy             | 0.99 | 1.0E-04 | 1.8E-03 |  5.5  3.5E-02  OK|
 +----------------------+------+---------+---------+------------------+
 | K-TurbKE             | 0.95 | 2.0E-04 | 1.1E-03 |  5.5  3.3E-02  OK|
 | E-Diss.K             | 0.94 | 2.2E-04 | 3.3E-03 |  7.6  1.2E-02  OK|
 +----------------------+------+---------+---------+------------------+

 ======================================================================
 OUTER LOOP ITERATION =  237 (   41) CPU SECONDS = 1.446E+02 (2.605E+01)
 ----------------------------------------------------------------------
 |       Equation       | Rate | RMS Res | Max Res |  Linear Solution |
 +----------------------+------+---------+---------+------------------+
 | U-Mom                | 0.98 | 7.4E-05 | 8.1E-04 |       2.1E-02  OK|
 | V-Mom                | 0.98 | 7.3E-05 | 5.9E-04 |       2.3E-02  OK|
 | W-Mom                | 0.97 | 3.4E-05 | 5.8E-04 |       8.9E-02  OK|
 | P-Mass               | 0.98 | 1.6E-05 | 1.3E-04 | 13.8  4.1E-02  OK|
 +----------------------+------+---------+---------+------------------+
 | H-Energy             | 0.99 | 1.0E-04 | 1.8E-03 |  5.5  3.4E-02  OK|
 +----------------------+------+---------+---------+------------------+
 | K-TurbKE             | 0.95 | 1.9E-04 | 1.0E-03 |  5.5  3.3E-02  OK|
 | E-Diss.K             | 0.95 | 2.1E-04 | 3.1E-03 |  7.6  1.2E-02  OK|
 +----------------------+------+---------+---------+------------------+

 ======================================================================
 OUTER LOOP ITERATION =  238 (   42) CPU SECONDS = 1.451E+02 (2.661E+01)
 ----------------------------------------------------------------------
 |       Equation       | Rate | RMS Res | Max Res |  Linear Solution |
 +----------------------+------+---------+---------+------------------+
 | U-Mom                | 0.98 | 7.3E-05 | 8.2E-04 |       2.1E-02  OK|
 | V-Mom                | 0.98 | 7.2E-05 | 5.8E-04 |       2.3E-02  OK|
 | W-Mom                | 0.97 | 3.3E-05 | 5.6E-04 |       9.2E-02  OK|
 | P-Mass               | 0.99 | 1.6E-05 | 1.3E-04 | 13.8  4.1E-02  OK|
 +----------------------+------+---------+---------+------------------+
 | H-Energy             | 0.99 | 1.0E-04 | 1.9E-03 |  5.5  3.3E-02  OK|
 +----------------------+------+---------+---------+------------------+
 | K-TurbKE             | 0.95 | 1.8E-04 | 9.8E-04 |  5.4  3.3E-02  OK|
 | E-Diss.K             | 0.96 | 2.0E-04 | 3.0E-03 |  7.6  1.2E-02  OK|
 +----------------------+------+---------+---------+------------------+
                   
 CFD Solver finished: Fri Dec  7 16:37:17 2018
 CFD Solver wall clock seconds: 2.3904E+01

 ======================================================================
              Termination and Interrupt Condition Summary
 ======================================================================
    
 CFD Solver: All target criteria reached
   (Equation residuals)

 ======================================================================
              Boundary Flow and Total Source Term Summary
 ======================================================================

 +--------------------------------------------------------------------+
 |                               U-Mom                                |
 +--------------------------------------------------------------------+
 Boundary         : Default Domain Default                  4.8216E+01
 Boundary         : in1                                     5.4071E-05
 Boundary         : in2                                    -5.9620E-05
 Boundary         : out                                    -3.9451E+01
                                                           -----------
 Domain Imbalance :                                         8.7651E+00

 +--------------------------------------------------------------------+
 |                               V-Mom                                |
 +--------------------------------------------------------------------+
 Boundary         : Default Domain Default                  1.5110E+00
 Boundary         : in1                                     6.3306E+04
 Boundary         : in2                                    -6.3278E+04
 Boundary         : out                                    -1.9095E+01
                                                           -----------
 Domain Imbalance :                                         1.0088E+01

 +--------------------------------------------------------------------+
 |                               W-Mom                                |
 +--------------------------------------------------------------------+
 Boundary         : Default Domain Default                 -1.2174E+04
 Boundary         : in1                                    -1.4498E-05
 Boundary         : in2                                    -1.0170E-05
 Boundary         : out                                     1.2206E+04
                                                           -----------
 Domain Imbalance :                                         3.1497E+01

 +--------------------------------------------------------------------+
 |                               P-Mass                               |
 +--------------------------------------------------------------------+
 Boundary         : in1                                     1.5000E+03
 Boundary         : in2                                     1.5000E+03
 Boundary         : out                                    -2.9999E+03
                                                           -----------
 Domain Imbalance :                                         1.3843E-01

 +--------------------------------------------------------------------+
 |                              H-Energy                              |
 +--------------------------------------------------------------------+
 Boundary         : in1                                     1.0569E+08
 Boundary         : in2                                    -8.2484E+07
 Boundary         : out                                    -2.2471E+07
                                                           -----------
 Domain Imbalance :                                         7.3730E+05


 +--------------------------------------------------------------------+
 |                     Normalised Imbalance Summary                   |
 +--------------------------------------------------------------------+
 |       Equation       |      Maximum Flow     |     Imbalance (%)   |
 +--------------------------------------------------------------------+
 | U-Mom                |       6.3306E+04      |        0.0138       |
 | V-Mom                |       6.3306E+04      |        0.0159       |
 | W-Mom                |       6.3306E+04      |        0.0498       |
 | P-Mass               |       2.9999E+03      |        0.0046       |
 +----------------------+-----------------------+---------------------+
 | H-Energy             |       1.0569E+08      |        0.6976       |
 +----------------------+-----------------------+---------------------+

 ======================================================================
                     Wall Force and Moment Summary
 ======================================================================
                                                                          
 Notes:
 1. Pressure integrals exclude the reference pressure.  To include
    it, set the expert parameter 'include pref in forces = t'.


 +--------------------------------------------------------------------+
 |                      Pressure Force On Walls                       |
 +--------------------------------------------------------------------+
                                    X-Comp.      Y-Comp.      Z-Comp.

 Domain Group: Default Domain

 Default Domain Default          -4.2975E+01  -2.3203E+00   1.2261E+04
                                  -----------  -----------  -----------
 Domain Group Totals :           -4.2975E+01  -2.3203E+00   1.2261E+04


 +--------------------------------------------------------------------+
 |                       Viscous Force On Walls                       |
 +--------------------------------------------------------------------+
                                    X-Comp.      Y-Comp.      Z-Comp.

 Domain Group: Default Domain

 Default Domain Default          -5.1585E+00   8.0452E-01  -8.5224E+01
                                  -----------  -----------  -----------
 Domain Group Totals :           -5.1585E+00   8.0452E-01  -8.5224E+01


 +--------------------------------------------------------------------+
 |                      Pressure Moment On Walls                      |
 +--------------------------------------------------------------------+
                                    X-Comp.      Y-Comp.      Z-Comp.

 Domain Group: Default Domain

 Default Domain Default           1.4888E+01   8.0856E+01  -1.0889E+05
                                  -----------  -----------  -----------
 Domain Group Totals :            1.4888E+01   8.0856E+01  -1.0889E+05


 +--------------------------------------------------------------------+
 |                       Viscous Moment On Walls                      |
 +--------------------------------------------------------------------+
                                    X-Comp.      Y-Comp.      Z-Comp.

 Domain Group: Default Domain

 Default Domain Default           1.4258E-01  -1.3782E+01  -5.9173E+03
                                  -----------  -----------  -----------
 Domain Group Totals :            1.4258E-01  -1.3782E+01  -5.9173E+03


 +--------------------------------------------------------------------+
 |                   Locations of Maximum Residuals                   |
 +--------------------------------------------------------------------+
 |       Equation       |      Domain Name      |     Node Number     |
 +--------------------------------------------------------------------+
 | U-Mom                | Default Domain        |          13945      |
 | V-Mom                | Default Domain        |          13853      |
 | W-Mom                | Default Domain        |          14602      |
 | P-Mass               | Default Domain        |          13933      |
 +----------------------+-----------------------+---------------------+
 | H-Energy             | Default Domain        |          13958      |
 +----------------------+-----------------------+---------------------+
 | K-TurbKE             | Default Domain        |           5535      |
 | E-Diss.K             | Default Domain        |          14633      |
 +----------------------+-----------------------+---------------------+

 ======================================================================
 |                     False Transient Information                    |
 +--------------------------------------------------------------------+
 |       Equation       |         Type          | Elapsed Pseudo-Time |
 +--------------------------------------------------------------------+
 | U-Mom                | Auto Timescale        |     7.95771E+00     |
 | V-Mom                | Auto Timescale        |     7.95771E+00     |
 | W-Mom                | Auto Timescale        |     7.95771E+00     |
 +----------------------+-----------------------+---------------------+
 | H-Energy             | Auto Timescale        |     7.95771E+00     |
 +----------------------+-----------------------+---------------------+
 | K-TurbKE             | Auto Timescale        |     7.95771E+00     |
 | E-Diss.K             | Auto Timescale        |     7.95771E+00     |
 +----------------------+-----------------------+---------------------+

 +--------------------------------------------------------------------+
 |                     Average Scale Information                      |
 +--------------------------------------------------------------------+

 Domain Name : Default Domain
     Global Length                                         = 3.2195E+00
     Minimum Extent                                        = 4.0000E+00
     Maximum Extent                                        = 6.0000E+00
     Density                                               = 9.9700E+02
     Dynamic Viscosity                                     = 8.8990E-04
     Velocity                                              = 5.6137E+00
     Advection Time                                        = 5.7351E-01
     Reynolds Number                                       = 2.0248E+07
     Thermal Conductivity                                  = 6.0690E-01
     Specific Heat Capacity at Constant Pressure           = 4.1817E+03
     Prandtl Number                                        = 6.1316E+00
     Temperature Range                                     = 3.0034E+01

 +--------------------------------------------------------------------+
 |                     Variable Range Information                     |
 +--------------------------------------------------------------------+

 Domain Name : Default Domain
 +--------------------------------------------------------------------+
 |      Variable Name                         |    min    |    max    |
 +--------------------------------------------------------------------+
 | Density                                    |  9.97E+02 |  9.97E+02 |
 | Specific Heat Capacity at Constant Pressure|  4.18E+03 |  4.18E+03 |
 | Dynamic Viscosity                          |  8.90E-04 |  8.90E-04 |
 | Thermal Conductivity                       |  6.07E-01 |  6.07E-01 |
 | Static Entropy                             | -1.89E+02 |  2.30E+02 |
 | Velocity u                                 | -6.79E+00 |  6.80E+00 |
 | Velocity v                                 | -7.12E+00 |  7.13E+00 |
 | Velocity w                                 | -5.39E+00 |  1.85E+00 |
 | Pressure                                   | -1.02E+04 |  7.97E+04 |
 | Turbulence Kinetic Energy                  |  1.16E-04 |  4.52E+00 |
 | Turbulence Eddy Dissipation                |  3.78E-04 |  2.26E+02 |
 | Eddy Viscosity                             |  1.34E-03 |  3.29E+02 |
 | Temperature                                |  2.85E+02 |  3.15E+02 |
 | Static Enthalpy                            | -5.51E+04 |  7.05E+04 |
 +--------------------------------------------------------------------+

 +--------------------------------------------------------------------+
 |               CPU Requirements of Numerical Solution               |
 +--------------------------------------------------------------------+

 Subsystem Name                  Discretization       Linear Solution
                                (secs.   %total)     (secs.   %total) 
 ----------------------------------------------------------------------
 Momentum and Mass              8.23E+00  27.8 %     2.61E+00   8.8 %
 Heat Transfer                  2.79E+00   9.4 %     9.07E-01   3.1 %
 TurbKE and Diss.K              4.22E+00  14.3 %     2.05E+00   6.9 %
                                -------- -------     --------  ------
 Subsystem Summary              1.52E+01  51.5 %     5.57E+00  18.8 %

 File Reading                   2.70E-02    0.1 %
 Variable Updates               2.89E+00    9.8 %
 File Writing                   2.11E-01    0.7 %
 Miscellaneous                  5.65E+00   19.1 %
                                --------
 Total                          2.96E+01

 +--------------------------------------------------------------------+
 |                   Job Information at End of Run                    |
 +--------------------------------------------------------------------+

 Host computer:  ENPC-LAB118 (PID:1620)

 Job finished:   Fri Dec  7 16:37:19 2018

 Total wall clock time: 2.958E+01 seconds
             or: (          0:         0:         0:    29.575 )
                 (       Days:     Hours:   Minutes:   Seconds )

End of solution stage.

 +--------------------------------------------------------------------+
 | The results from this run of the ANSYS CFX Solver have been        |
 | written to                                                         |
 | H:/dos/CFD/CW/CFD-Static-Mixer/StaticMixerDX_pending/dp6_CFX_Solu- |
 | tion/Fluid Flow CFX_003.res                                        |
 +--------------------------------------------------------------------+


 +--------------------------------------------------------------------+
 | For CFX runs launched from Workbench, the final locations of       |
 | directories and files generated may differ from those shown.       |
 +--------------------------------------------------------------------+


This run of the ANSYS CFX Solver has finished.
