 This run of the CFX Release 19.1 Solver started at 10:54:48 on 07 Dec
 2018 by user jc2182 on PAPC-CB513-081 (intel_xeon64.sse2_winnt) using
 the command:
 
  "C:\Program Files\ANSYS Inc\v191\CFX\bin\perllib\cfx5solve.pl" -batch
    -ccl runInput.ccl -fullname "Fluid Flow CFX_001"
 
 Release 19.1
 
  Point Releases and Patches installed:
  ANSYS, Inc. Products Release 19.1
  SpaceClaim Release 19.1
  Autodyn Release 19.1
  LS-DYNA Release 19.1
  CFD-Post only Release 19.1
  CFX (includes CFD-Post) Release 19.1
  Chemkin Release 19.1
  EnSight Release 19.1
  FENSAP-ICE Release 19.1
  Fluent (includes CFD-Post) Release 19.1
  Forte Release 19.1
  Polyflow (includes CFD-Post) Release 19.1
  TurboGrid Release 19.1
  ICEM CFD Release 19.1
  Customization Files for User Programmable Features Release 19.1
  Mechanical Products Release 19.1
  Icepak (includes CFD-Post) Release 19.1
  Remote Solve Manager Standalone Services Release 19.1
  ACIS Geometry Interface Release 19.1
  Catia, Version 5 Geometry Interface Release 19.1
  NX Geometry Interface Release 19.1
  Parasolid Geometry Interface  Release 19.1
  ANSYS, Inc. License Manager Release 19.1
 
 Setting up CFX Solver run ...
 
 
 +--------------------------------------------------------------------+
 |                                                                    |
 |                    CFX Command Language for Run                    |
 |                                                                    |
 +--------------------------------------------------------------------+
 
 LIBRARY:
   CEL:
     EXPRESSIONS:
       inMassFlow = 1500 [kg s^-1]
     END
   END
   MATERIAL: Water
     Material Description = Water (liquid)
     Material Group = Water Data, Constant Property Liquids
     Option = Pure Substance
     Thermodynamic State = Liquid
     PROPERTIES:
       Option = General Material
       EQUATION OF STATE:
         Density = 997.0 [kg m^-3]
         Molar Mass = 18.02 [kg kmol^-1]
         Option = Value
       END
       SPECIFIC HEAT CAPACITY:
         Option = Value
         Specific Heat Capacity = 4181.7 [J kg^-1 K^-1]
         Specific Heat Type = Constant Pressure
       END
       REFERENCE STATE:
         Option = Specified Point
         Reference Pressure = 1 [atm]
         Reference Specific Enthalpy = 0.0 [J/kg]
         Reference Specific Entropy = 0.0 [J/kg/K]
         Reference Temperature = 25 [C]
       END
       DYNAMIC VISCOSITY:
         Dynamic Viscosity = 8.899E-4 [kg m^-1 s^-1]
         Option = Value
       END
       THERMAL CONDUCTIVITY:
         Option = Value
         Thermal Conductivity = 0.6069 [W m^-1 K^-1]
       END
       ABSORPTION COEFFICIENT:
         Absorption Coefficient = 1.0 [m^-1]
         Option = Value
       END
       SCATTERING COEFFICIENT:
         Option = Value
         Scattering Coefficient = 0.0 [m^-1]
       END
       REFRACTIVE INDEX:
         Option = Value
         Refractive Index = 1.0 [m m^-1]
       END
       THERMAL EXPANSIVITY:
         Option = Value
         Thermal Expansivity = 2.57E-04 [K^-1]
       END
     END
   END
 END
 FLOW: Flow Analysis 1
   SOLUTION UNITS:
     Angle Units = [rad]
     Length Units = [m]
     Mass Units = [kg]
     Solid Angle Units = [sr]
     Temperature Units = [K]
     Time Units = [s]
   END
   ANALYSIS TYPE:
     Option = Transient
     EXTERNAL SOLVER COUPLING:
       Option = None
     END
     INITIAL TIME:
       Option = Value
       Time = 0 [s]
     END
     TIME DURATION:
       Option = Total Time
       Total Time = 8 [s]
     END
     TIME STEPS:
       Option = Timesteps
       Timesteps = 0.1 [s]
     END
   END
   DOMAIN: Default Domain
     Coord Frame = Coord 0
     Domain Type = Fluid
     Location = B17
     BOUNDARY: Default Domain Default
       Boundary Type = WALL
       Location = F12.17,F14.17,F16.17,F19.17,F20.17,F21.17,F29.17,F30.17
       BOUNDARY CONDITIONS:
         HEAT TRANSFER:
           Option = Adiabatic
         END
         MASS AND MOMENTUM:
           Option = No Slip Wall
         END
         WALL ROUGHNESS:
           Option = Smooth Wall
         END
       END
     END
     BOUNDARY: in1
       Boundary Type = INLET
       Location = in1
       BOUNDARY CONDITIONS:
         FLOW DIRECTION:
           Option = Normal to Boundary Condition
         END
         FLOW REGIME:
           Option = Subsonic
         END
         HEAT TRANSFER:
           Option = Static Temperature
           Static Temperature = 315 [K]
         END
         MASS AND MOMENTUM:
           Mass Flow Rate = inMassFlow
           Mass Flow Rate Area = As Specified
           Option = Mass Flow Rate
         END
         TURBULENCE:
           Fractional Intensity = 0.01
           Option = Intensity and Auto Compute Length
         END
       END
     END
     BOUNDARY: in2
       Boundary Type = INLET
       Location = in2
       BOUNDARY CONDITIONS:
         FLOW DIRECTION:
           Option = Normal to Boundary Condition
         END
         FLOW REGIME:
           Option = Subsonic
         END
         HEAT TRANSFER:
           Option = Static Temperature
           Static Temperature = 285 [K]
         END
         MASS AND MOMENTUM:
           Mass Flow Rate = inMassFlow
           Mass Flow Rate Area = As Specified
           Option = Mass Flow Rate
         END
         TURBULENCE:
           Option = Medium Intensity and Eddy Viscosity Ratio
         END
       END
     END
     BOUNDARY: out
       Boundary Type = OUTLET
       Location = out
       BOUNDARY CONDITIONS:
         FLOW REGIME:
           Option = Subsonic
         END
         MASS AND MOMENTUM:
           Option = Static Pressure
           Relative Pressure = 0 [Pa]
         END
       END
     END
     DOMAIN MODELS:
       BUOYANCY MODEL:
         Option = Non Buoyant
       END
       DOMAIN MOTION:
         Option = Stationary
       END
       MESH DEFORMATION:
         Option = None
       END
       REFERENCE PRESSURE:
         Reference Pressure = 1 [atm]
       END
     END
     FLUID DEFINITION: Fluid 1
       Material = Water
       Option = Material Library
       MORPHOLOGY:
         Option = Continuous Fluid
       END
     END
     FLUID MODELS:
       COMBUSTION MODEL:
         Option = None
       END
       HEAT TRANSFER MODEL:
         Option = Thermal Energy
       END
       THERMAL RADIATION MODEL:
         Option = None
       END
       TURBULENCE MODEL:
         Option = k epsilon
       END
       TURBULENT WALL FUNCTIONS:
         Option = Scalable
       END
     END
     INITIALISATION:
       Option = Automatic
       INITIAL CONDITIONS:
         Velocity Type = Cartesian
         CARTESIAN VELOCITY COMPONENTS:
           Option = Automatic with Value
           U = 0 [m s^-1]
           V = 0 [m s^-1]
           W = 0 [m s^-1]
         END
         STATIC PRESSURE:
           Option = Automatic with Value
           Relative Pressure = 0 [Pa]
         END
         TEMPERATURE:
           Option = Automatic with Value
           Temperature = 290 [K]
         END
         TURBULENCE INITIAL CONDITIONS:
           Option = High Intensity and Eddy Viscosity Ratio
         END
       END
     END
   END
   OUTPUT CONTROL:
     RESULTS:
       File Compression Level = Default
       Option = Standard
     END
     TRANSIENT RESULTS: Transient Results 1
       File Compression Level = Default
       Option = Standard
       OUTPUT FREQUENCY:
         Option = Time Interval
         Time Interval = 0.5 [s]
       END
     END
   END
   SOLVER CONTROL:
     Turbulence Numerics = High Resolution
     ADVECTION SCHEME:
       Option = High Resolution
     END
     CONVERGENCE CONTROL:
       Maximum Number of Coefficient Loops = 10
       Minimum Number of Coefficient Loops = 1
       Timescale Control = Coefficient Loops
     END
     CONVERGENCE CRITERIA:
       Residual Target = 1.E-4
       Residual Type = RMS
     END
     TRANSIENT SCHEME:
       Option = Second Order Backward Euler
       TIMESTEP INITIALISATION:
         Option = Automatic
       END
     END
   END
 END
 COMMAND FILE:
   Version = 19.1
   Results Version = 19.1
 END
 PARAMETERIZATION:
   INPUT FIELD: inMassFlow
     Expression Name = inMassFlow
     Method = Expression
   END
 END
 SIMULATION CONTROL:
   EXECUTION CONTROL:
     EXECUTABLE SELECTION:
       Double Precision = No
       Large Problem = No
     END
     INTERPOLATOR STEP CONTROL:
       Runtime Priority = Standard
       MEMORY CONTROL:
         Memory Allocation Factor = 1.0
       END
     END
     PARALLEL HOST LIBRARY:
       HOST DEFINITION: papccb513081
         Remote Host Name = PAPC-CB513-081
         Host Architecture String = winnt-amd64
         Installation Root = C:\Program Files\ANSYS Inc\v%v\CFX
       END
     END
     PARTITIONER STEP CONTROL:
       Multidomain Option = Automatic
       Runtime Priority = Standard
       MEMORY CONTROL:
         Memory Allocation Factor = 1.0
       END
       PARTITION SMOOTHING:
         Maximum Partition Smoothing Sweeps = 100
         Option = Smooth
       END
       PARTITIONING TYPE:
         MeTiS Type = k-way
         Option = MeTiS
         Partition Size Rule = Automatic
         Partition Weight Factors = 0.25000, 0.25000, 0.25000, 0.25000
       END
     END
     RUN DEFINITION:
       Run Mode = Full
       Solver Input File = Fluid Flow CFX.def
       Solver Results File = \
         H:/dos/CFD/CW/CFD-Static-Mixer/StaticMixerDX_pending/dp6_CFX_Solution\
         /Fluid Flow CFX_001.res
     END
     SOLVER STEP CONTROL:
       Runtime Priority = Standard
       MEMORY CONTROL:
         Memory Allocation Factor = 1.0
       END
       PARALLEL ENVIRONMENT:
         Number of Processes = 4
         Start Method = Intel MPI Local Parallel
         Parallel Host List = papccb513081*4
       END
     END
   END
 END
 
 
 +--------------------------------------------------------------------+
 |                                                                    |
 |                            Partitioning                            |
 |                                                                    |
 +--------------------------------------------------------------------+
 



 +--------------------------------------------------------------------+
 |                                                                    |
 |                     ANSYS(R) CFX(R) Partitioner                    |
 |                                                                    |
 | Release 19.1                                                       |
 | Build 19.1 2018-04-17T13:27:50.069000                              |
 | Tue Apr 17 15:02:11 GMTDT 2018                                     |
 |                                                                    |
 |                        Executable Attributes                       |
 |                                                                    |
 |           single-64bit-int32-archfort-optimised-std-lcomp          |
 |                                                                    |
 | (C) 1996-2018 ANSYS, Inc.                                          |
 |                                                                    |
 | All rights reserved. Unauthorized use, distribution or duplication |
 | is prohibited. This product is subject to U.S. laws governing      |
 | export and re-export. For full Legal Notice, see documentation.    |
 +--------------------------------------------------------------------+




 +--------------------------------------------------------------------+
 |                  Job Information at Start of Run                   |
 +--------------------------------------------------------------------+

 Run mode:       partitioning run

 Host computer:  PAPC-CB513-081 (PID:7184)

 Job started:    Fri Dec  7 10:54:51 2018

 +--------------------------------------------------------------------+
 |                        License Information                         |
 +--------------------------------------------------------------------+
 
 License Cap:    ANSYS CFX Solver (Max 128K Nodes)
 License Cap:     Parallel
 License ID:     VIGO_campus_bath_ac_uk-SYSTEM-1456-1141975


 +--------------------------------------------------------------------+
 |        Memory Allocated for Run  (Actual usage may be less)        |
 +--------------------------------------------------------------------+

           | Real       | Integer    | Character | Logical  | Double
 ----------+------------+------------+-----------+----------+----------
 Mwords    |       1.17 |       4.03 |      6.85 |     0.12 |     0.90
 Mbytes    |       4.46 |      15.37 |      6.53 |     0.46 |     6.87
 ----------+------------+------------+-----------+----------+----------


 +--------------------------------------------------------------------+
 |                  Host Memory Information (Mbytes)                  |
 +--------------------------------------------------------------------+
 |          Host           |     System     |   Allocated    |   %    |
 +-------------------------+----------------+----------------+--------+
 | PAPC-CB513-081          |     16247.71   |        33.69   |   0.21 |
 +-------------------------+----------------+----------------+--------+

 +--------------------------------------------------------------------+
 | The MeTiS partitioning method allocates additional memory.         |
 | Total memory usage will therefore exceed the values shown above.   |
 +--------------------------------------------------------------------+

 +--------------------------------------------------------------------+
 |                      Topology Simplification                       |
 +--------------------------------------------------------------------+

 +--------------------------------------------------------------------+
 |                       ****** Warning ******                        |
 |                                                                    |
 | Topology simplification is activated with the following            |
 | restrictions:                                                      |
 |                                                                    |
 | - Mesh regions referenced only within User Fortran and NOT         |
 |   in the command file will cause the solver to stop.               |
 | - The solver will stop during any "Edit Run in Progress" step      |
 |   if new 2D regions are referenced.                                |
 +--------------------------------------------------------------------+

 +--------------------------------------------------------------------+
 |                          Mesh Statistics                           |
 +--------------------------------------------------------------------+

 Domain Name : Default Domain

     Total Number of Nodes                                =       34519

     Total Number of Elements                             =      122324
         Total Number of Tetrahedrons                     =       88859
         Total Number of Prisms                           =       33465

     Total Number of Faces                                =       10443

 +--------------------------------------------------------------------+
 |                     Vertex Based Partitioning                      |
 +--------------------------------------------------------------------+

 Partitioning of domain: Default Domain

 - Partitioning tool:       MeTiS multilevel k-way algorithm
 - Number of partitions:             4
 - Number of graph-nodes:        34519
 - Number of graph-edges:       357596

 +--------------------------------------------------------------------+
 |                 Iso-Partition Connection Statistics                |
 +--------------------------------------------------------------------+
 | Domains in Group          |        |           Vertices            |
 |                           | Smooth +---------+----------+----------+
 |                           | Sweeps |  Moves  |   <25%   |   <50%   |
 +---------------------------+--------+---------+----------+----------+
 | Default Domain            |     2  |       1 |       0  |      14  |
 +---------------------------+--------+---------+----------+----------+

 +--------------------------------------------------------------------+
 |                      Partitioning Information                      |
 +--------------------------------------------------------------------+

 Partitioning information for domain: Default Domain

        +------------------+------------------------+-----------------+
        |     Elements     |        Vertices        |     Faces       |
 +------+------------------+------------------------+-----------------+
 | Part |   Number     %   |   Number     %   %Ovlp |  Number     %   |
 +------+------------------+------------------------+-----------------+
 | Full |    122324        |     34519              |    10443        |
 +------+------------------+------------------------+-----------------+
 |    1 |     37594   28.8 |     10289   25.6  14.1 |     2070   19.1 |
 |    2 |     46615   35.8 |     10794   26.9  17.8 |     1360   12.6 |
 |    3 |     22778   17.5 |      9609   23.9  12.8 |     3691   34.1 |
 |    4 |     23400   17.9 |      9451   23.5  10.8 |     3692   34.1 |
 +------+------------------+------------------------+-----------------+
 | Min  |     22778   17.5 |      9451   23.5  10.8 |     1360   12.6 |
 |(part)|           (    3)|           (    4     4)|          (    2)|
 +------+------------------+------------------------+-----------------+
 | Max  |     46615   35.8 |     10794   26.9  17.8 |     3692   34.1 |
 |(part)|           (    2)|           (    2     2)|          (    4)|
 +------+------------------+------------------------+-----------------+
 | Ave  |     32597   25.0 |     10036   25.0  13.9 |     2703   25.0 |
 +------+------------------+------------------------+-----------------+
 | Sum  |    130387  100.0 |     40143  100.0       |    10813  100.0 |
 +------+------------------+------------------------+-----------------+

 +--------------------------------------------------------------------+
 |                 Partitioning CPU-Time Requirements                 |
 +--------------------------------------------------------------------+
 Preparations                   4.90E-02    1.9 %
 Low-level Mesh Partitioning    1.70E-02    0.6 %
 File Reading                   3.30E-02    1.3 %
 Partition Smoothing            5.30E-02    2.0 %
 Topology - Global              2.00E-03    0.1 %
 Topology - Element/Face/Patch  6.00E-03    0.2 %
 Topology - Vertex              1.00E-03    0.0 %
 Data Compression               1.00E-03    0.0 %
 Variable Updates               1.00E-03    0.0 %
 File Writing                   2.30E-02    0.9 %
 Miscellaneous                  2.43E+00   92.9 %
                                --------
 Total                          2.62E+00

 +--------------------------------------------------------------------+
 |                   Job Information at End of Run                    |
 +--------------------------------------------------------------------+

 Host computer:  PAPC-CB513-081 (PID:7184)

 Job finished:   Fri Dec  7 10:54:54 2018

 Total wall clock time: 2.607E+00 seconds
             or: (          0:         0:         0:     2.607 )
                 (       Days:     Hours:   Minutes:   Seconds )

 
 +--------------------------------------------------------------------+
 |                                                                    |
 |                               Solver                               |
 |                                                                    |
 +--------------------------------------------------------------------+
 



 +--------------------------------------------------------------------+
 |                                                                    |
 |                       ANSYS(R) CFX(R) Solver                       |
 |                                                                    |
 | Release 19.1                                                       |
 | Build 19.1 2018-04-17T13:27:50.069000                              |
 | Tue Apr 17 15:02:11 GMTDT 2018                                     |
 |                                                                    |
 |                        Executable Attributes                       |
 |                                                                    |
 |           single-64bit-int32-archfort-optimised-std-lcomp          |
 |                                                                    |
 | (C) 1996-2018 ANSYS, Inc.                                          |
 |                                                                    |
 | All rights reserved. Unauthorized use, distribution or duplication |
 | is prohibited. This product is subject to U.S. laws governing      |
 | export and re-export. For full Legal Notice, see documentation.    |
 +--------------------------------------------------------------------+




 +--------------------------------------------------------------------+
 |                  Job Information at Start of Run                   |
 +--------------------------------------------------------------------+

 Run mode:       parallel run (MPI)

 Job started:    Fri Dec  7 10:54:55 2018

 +--------------------------------------------------------------------+
 |                        License Information                         |
 +--------------------------------------------------------------------+
 
 License Cap:    ANSYS CFX Solver (Max 128K Nodes)
 License Cap:     Parallel
 License ID:     VIGO_campus_bath_ac_uk-SYSTEM-1456-1142157


 +--------------------------------------------------------------------+
 |        Memory Allocated for Run  (Actual usage may be less)        |
 +--------------------------------------------------------------------+

 Allocated storage in:    Mwords
                          Mbytes

 Partition | Real       | Integer    | Character | Logical  | Double
 ----------+------------+------------+-----------+----------+----------
   Minimum |      15.33 |       2.65 |      7.30 |     0.12 |     0.91
  (     3) |      58.49 |      10.12 |      6.97 |     0.11 |     6.93
 ----------+------------+------------+-----------+----------+----------
   Maximum |      16.00 |       3.11 |      7.30 |     0.12 |     0.91
  (     2) |      61.02 |      11.85 |      6.97 |     0.11 |     6.93
 ----------+------------+------------+-----------+----------+----------
   Average |      15.59 |       2.84 |      7.30 |     0.12 |     0.91
           |      59.49 |      10.85 |      6.97 |     0.11 |     6.93
 ----------+------------+------------+-----------+----------+----------
     Total |      62.38 |      11.37 |     29.22 |     0.48 |     3.63
           |     237.95 |      43.39 |     27.87 |     0.46 |    27.71
 ----------+------------+------------+-----------+----------+----------


 +--------------------------------------------------------------------+
 |                  Host Memory Information (Mbytes)                  |
 +--------------------------------------------------------------------+
 |           Host         | Npart |   System    |  Allocated  |   %   |
 +------------------------+-------+-------------+-------------+-------+
 | PAPC-CB513-081         |    4  |    16247.71 |      337.37 |  2.08 |
 +------------------------+-------+-------------+-------------+-------+


 +--------------------------------------------------------------------+
 |                     ****** Notice ******                           |
 | The Wall Heat Transfer Coefficient written to the results file for |
 | any turbulent phase with heat transfer is based on the turbulent   |
 | wall function coefficient. It is consistent with the Wall Heat Flux|
 | the wall temperature, and the Wall Adjacent Temperature            |
 | (near-wall temperature).  If you would like it to be based on a    |
 | user-specified bulk temperature instead, please set the expert     |
 | parameter "tbulk for htc = <value>".                               |
 +--------------------------------------------------------------------+

 +--------------------------------------------------------------------+
 |                      Topology Simplification                       |
 +--------------------------------------------------------------------+

 +--------------------------------------------------------------------+
 |                       ****** Warning ******                        |
 |                                                                    |
 | Topology simplification is activated with the following            |
 | restrictions:                                                      |
 |                                                                    |
 | - Mesh regions referenced only within User Fortran and NOT         |
 |   in the command file will cause the solver to stop.               |
 | - The solver will stop during any "Edit Run in Progress" step      |
 |   if new 2D regions are referenced.                                |
 +--------------------------------------------------------------------+

 +--------------------------------------------------------------------+
 |                          Mesh Statistics                           |
 +--------------------------------------------------------------------+
 | Domain Name          | Orthog. Angle | Exp. Factor  | Aspect Ratio |
 +----------------------+---------------+--------------+--------------+
 |                      | Minimum [deg] |   Maximum    |    Maximum   |
 +----------------------+---------------+--------------+--------------+
 | Default Domain       |       32.7 ok |        17 ok |        27 OK |
 +----------------------+---------------+--------------+--------------+
 |                      |  %!  %ok  %OK | %!  %ok  %OK | %!  %ok  %OK |
 +----------------------+---------------+--------------+--------------+
 | Default Domain       |   0    1   99 |  0    1   99 |  0    0  100 |
 +----------------------+---------------+--------------+--------------+

 Domain Name : Default Domain

     Total Number of Nodes                                =       34519

     Total Number of Elements                             =      122324
         Total Number of Tetrahedrons                     =       88859
         Total Number of Prisms                           =       33465

     Total Number of Faces                                =       10443

 +--------------------------------------------------------------------+
 |                     Average Scale Information                      |
 +--------------------------------------------------------------------+

 Domain Name : Default Domain
     Global Length                                         = 3.2160E+00
     Minimum Extent                                        = 4.0000E+00
     Maximum Extent                                        = 6.0000E+00
     Density                                               = 9.9700E+02
     Dynamic Viscosity                                     = 8.8990E-04
     Velocity                                              = 0.0000E+00
     Thermal Conductivity                                  = 6.0690E-01
     Specific Heat Capacity at Constant Pressure           = 4.1817E+03
     Prandtl Number                                        = 6.1316E+00

 +--------------------------------------------------------------------+
 |                Checking for Isolated Fluid Regions                 |
 +--------------------------------------------------------------------+
 
 No isolated fluid regions were found.

 +--------------------------------------------------------------------+
 |              The Equations Solved in This Calculation              |
 +--------------------------------------------------------------------+

 Subsystem : Momentum and Mass

   U-Mom
   V-Mom
   W-Mom
   P-Mass

 Subsystem : Heat Transfer

   H-Energy

 Subsystem : TurbKE and Diss.K

   K-TurbKE
   E-Diss.K
                   
 CFD Solver started: Fri Dec  7 10:55:00 2018


 +--------------------------------------------------------------------+
 |                       Convergence History                          |
 +--------------------------------------------------------------------+

 +--------------------------------------------------------------------+
 | Writing transient file 0_full.trn                                  |
 |   Name   : Transient Results 1                                     |
 |   Type   : Standard                                                |
 |   Option : Time Interval                                           |
 +--------------------------------------------------------------------+


 ======================================================================
 |                      Timestepping Information                      |
 ----------------------------------------------------------------------
 |       Timestep       |  RMS Courant Number  |  Max Courant Number  |
 +----------------------+----------------------+----------------------+
 |      1.0000E-01      |          0.00        |          0.00        |
 ----------------------------------------------------------------------

 ======================================================================
 TIME STEP =     1 SIMULATION TIME = 1.0000E-01 CPU SECONDS = 3.101E+01
 ----------------------------------------------------------------------
 COEFFICIENT LOOP ITERATION =    1              CPU SECONDS = 3.101E+01
 ----------------------------------------------------------------------
 |       Equation       | Rate | RMS Res | Max Res |  Linear Solution |
 +----------------------+------+---------+---------+------------------+
 | U-Mom                | 0.00 | 0.0E+00 | 0.0E+00 |       0.0E+00  OK|
 | V-Mom                | 0.00 | 2.8E-02 | 4.0E-01 |       2.9E-03  OK|
 | W-Mom                | 0.00 | 0.0E+00 | 0.0E+00 |       0.0E+00  OK|
 | P-Mass               | 0.00 | 9.5E-04 | 3.8E-02 | 17.9  9.3E-02  OK|
 +----------------------+------+---------+---------+------------------+
 | H-Energy             | 0.00 | 4.1E-02 | 8.3E-01 |  5.5  2.0E-03  OK|
 +----------------------+------+---------+---------+------------------+
 | K-TurbKE             | 0.00 | 4.7E-02 | 1.0E+00 |  5.5  1.7E-03  OK|
 | E-Diss.K             | 0.00 | 4.6E-02 | 1.0E+00 |  7.7  1.5E-03  OK|
 +----------------------+------+---------+---------+------------------+
 ----------------------------------------------------------------------
 COEFFICIENT LOOP ITERATION =    2              CPU SECONDS = 3.377E+01
 ----------------------------------------------------------------------
 |       Equation       | Rate | RMS Res | Max Res |  Linear Solution |
 +----------------------+------+---------+---------+------------------+
 | U-Mom                | 0.00 | 3.3E-03 | 8.2E-02 |       3.1E-02  OK|
 | V-Mom                | 0.35 | 9.8E-03 | 1.1E-01 |       1.4E-02  OK|
 | W-Mom                | 0.00 | 8.2E-03 | 2.4E-01 |       1.2E-02  OK|
 | P-Mass               | 1.02 | 9.7E-04 | 2.1E-02 | 13.6  9.6E-02  OK|
 +----------------------+------+---------+---------+------------------+
 | H-Energy             | 0.05 | 1.9E-03 | 4.1E-02 |  5.5  3.6E-03  OK|
 +----------------------+------+---------+---------+------------------+
 | K-TurbKE             | 0.33 | 1.6E-02 | 4.2E-01 |  5.5  1.5E-03  OK|
 | E-Diss.K             | 0.66 | 3.0E-02 | 1.0E+00 | 14.4  2.5E-07  OK|
 +----------------------+------+---------+---------+------------------+
 ----------------------------------------------------------------------
 COEFFICIENT LOOP ITERATION =    3              CPU SECONDS = 3.635E+01
 ----------------------------------------------------------------------
 |       Equation       | Rate | RMS Res | Max Res |  Linear Solution |
 +----------------------+------+---------+---------+------------------+
 | U-Mom                | 0.77 | 2.6E-03 | 5.9E-02 |       2.9E-02  OK|
 | V-Mom                | 0.44 | 4.4E-03 | 7.3E-02 |       2.3E-02  OK|
 | W-Mom                | 0.30 | 2.5E-03 | 4.0E-02 |       1.7E-02  OK|
 | P-Mass               | 0.66 | 6.4E-04 | 9.0E-03 | 13.6  7.5E-02  OK|
 +----------------------+------+---------+---------+------------------+
 | H-Energy             | 0.68 | 1.3E-03 | 2.5E-02 |  5.5  1.9E-03  OK|
 +----------------------+------+---------+---------+------------------+
 | K-TurbKE             | 1.04 | 1.6E-02 | 4.9E-01 |  5.5  1.6E-02  OK|
 | E-Diss.K             | 0.36 | 1.1E-02 | 6.0E-01 |  7.7  2.1E-04  OK|
 +----------------------+------+---------+---------+------------------+
 ----------------------------------------------------------------------
 COEFFICIENT LOOP ITERATION =    4              CPU SECONDS = 3.883E+01
 ----------------------------------------------------------------------
 |       Equation       | Rate | RMS Res | Max Res |  Linear Solution |
 +----------------------+------+---------+---------+------------------+
 | U-Mom                | 0.56 | 1.4E-03 | 3.2E-02 |       4.6E-03  OK|
 | V-Mom                | 0.66 | 2.9E-03 | 4.6E-02 |       4.7E-03  OK|
 | W-Mom                | 0.89 | 2.2E-03 | 3.0E-02 |       8.7E-03  OK|
 | P-Mass               | 0.71 | 4.5E-04 | 8.2E-03 | 13.6  7.0E-02  OK|
 +----------------------+------+---------+---------+------------------+
 | H-Energy             | 0.59 | 7.5E-04 | 1.7E-02 |  5.5  3.1E-03  OK|
 +----------------------+------+---------+---------+------------------+
 | K-TurbKE             | 0.29 | 4.7E-03 | 6.6E-02 | 10.0  7.2E-02  OK|
 | E-Diss.K             | 2.18 | 2.4E-02 | 9.4E-01 |  7.7  2.0E-03  OK|
 +----------------------+------+---------+---------+------------------+
 ----------------------------------------------------------------------
 COEFFICIENT LOOP ITERATION =    5              CPU SECONDS = 4.132E+01
 ----------------------------------------------------------------------
 |       Equation       | Rate | RMS Res | Max Res |  Linear Solution |
 +----------------------+------+---------+---------+------------------+
 | U-Mom                | 1.42 | 2.0E-03 | 6.8E-02 |       1.8E-02  OK|
 | V-Mom                | 0.90 | 2.6E-03 | 6.2E-02 |       1.4E-02  OK|
 | W-Mom                | 1.30 | 2.8E-03 | 4.6E-02 |       6.6E-02  OK|
 | P-Mass               | 1.55 | 7.0E-04 | 1.1E-02 |  9.4  7.3E-02  OK|
 +----------------------+------+---------+---------+------------------+
 | H-Energy             | 0.52 | 3.9E-04 | 1.0E-02 |  5.5  4.0E-03  OK|
 +----------------------+------+---------+---------+------------------+
 | K-TurbKE             | 1.65 | 7.8E-03 | 1.5E-01 | 10.1  5.0E-02  OK|
 | E-Diss.K             | 1.26 | 3.0E-02 | 9.1E-01 | 14.4  3.4E-02  OK|
 +----------------------+------+---------+---------+------------------+
 ----------------------------------------------------------------------
 COEFFICIENT LOOP ITERATION =    6              CPU SECONDS = 4.373E+01
 ----------------------------------------------------------------------
 |       Equation       | Rate | RMS Res | Max Res |  Linear Solution |
 +----------------------+------+---------+---------+------------------+
 | U-Mom                | 3.32 | 6.8E-03 | 1.5E-01 |       4.8E-02  OK|
 | V-Mom                | 2.65 | 6.9E-03 | 1.7E-01 |       4.4E-02  OK|
 | W-Mom                | 3.91 | 1.1E-02 | 1.4E-01 |       8.3E-03  OK|
 | P-Mass               | 0.99 | 7.0E-04 | 1.8E-02 |  9.4  4.7E-02  OK|
 +----------------------+------+---------+---------+------------------+
 | H-Energy             | 0.53 | 2.1E-04 | 4.2E-03 |  5.5  4.8E-03  OK|
 +----------------------+------+---------+---------+------------------+
 | K-TurbKE             |18.39 | 1.4E-01 | 1.2E+00 |  5.5  1.3E-02  OK|
 | E-Diss.K             | 3.30 | 9.8E-02 | 3.1E+00 | 14.3  2.5E-05  OK|
 +----------------------+------+---------+---------+------------------+
 ----------------------------------------------------------------------
 COEFFICIENT LOOP ITERATION =    7              CPU SECONDS = 4.613E+01
 ----------------------------------------------------------------------
 |       Equation       | Rate | RMS Res | Max Res |  Linear Solution |
 +----------------------+------+---------+---------+------------------+
 | U-Mom                | 0.77 | 5.3E-03 | 1.8E-01 |       1.1E-02  OK|
 | V-Mom                | 0.76 | 5.3E-03 | 1.9E-01 |       9.0E-03  OK|
 | W-Mom                | 0.43 | 4.7E-03 | 9.7E-02 |       1.3E-02  OK|
 | P-Mass               | 1.20 | 8.4E-04 | 2.4E-02 |  9.4  2.5E-02  OK|
 +----------------------+------+---------+---------+------------------+
 | H-Energy             | 0.52 | 1.1E-04 | 2.1E-03 |  5.5  5.8E-03  OK|
 +----------------------+------+---------+---------+------------------+
 | K-TurbKE             | 0.55 | 7.9E-02 | 9.1E-01 |  5.5  4.0E-03  OK|
 | E-Diss.K             | 0.66 | 6.5E-02 | 1.9E+00 | 14.3  1.1E-06  OK|
 +----------------------+------+---------+---------+------------------+
 ----------------------------------------------------------------------
 COEFFICIENT LOOP ITERATION =    8              CPU SECONDS = 4.861E+01
 ----------------------------------------------------------------------
 |       Equation       | Rate | RMS Res | Max Res |  Linear Solution |
 +----------------------+------+---------+---------+------------------+
 | U-Mom                | 0.34 | 1.8E-03 | 6.6E-02 |       1.6E-02  OK|
 | V-Mom                | 0.34 | 1.8E-03 | 6.5E-02 |       1.6E-02  OK|
 | W-Mom                | 0.41 | 1.9E-03 | 6.7E-02 |       2.1E-02  OK|
 | P-Mass               | 0.35 | 3.0E-04 | 4.9E-03 |  9.4  2.7E-02  OK|
 +----------------------+------+---------+---------+------------------+
 | H-Energy             | 0.54 | 5.8E-05 | 1.0E-03 |  5.5  6.0E-03  OK|
 +----------------------+------+---------+---------+------------------+
 | K-TurbKE             | 0.49 | 3.9E-02 | 6.7E-01 |  5.5  1.7E-03  OK|
 | E-Diss.K             | 0.55 | 3.6E-02 | 9.6E-01 | 14.3  2.0E-07  OK|
 +----------------------+------+---------+---------+------------------+
 ----------------------------------------------------------------------
 COEFFICIENT LOOP ITERATION =    9              CPU SECONDS = 5.103E+01
 ----------------------------------------------------------------------
 |       Equation       | Rate | RMS Res | Max Res |  Linear Solution |
 +----------------------+------+---------+---------+------------------+
 | U-Mom                | 0.42 | 7.5E-04 | 3.2E-02 |       1.9E-02  OK|
 | V-Mom                | 0.42 | 7.7E-04 | 3.4E-02 |       2.0E-02  OK|
 | W-Mom                | 0.50 | 9.8E-04 | 3.3E-02 |       1.9E-02  OK|
 | P-Mass               | 0.53 | 1.6E-04 | 3.2E-03 |  9.4  2.9E-02  OK|
 +----------------------+------+---------+---------+------------------+
 | H-Energy             | 0.56 | 3.2E-05 | 6.1E-04 |  5.5  6.3E-03  OK|
 +----------------------+------+---------+---------+------------------+
 | K-TurbKE             | 0.71 | 2.8E-02 | 5.6E-01 |  5.5  1.7E-03  OK|
 | E-Diss.K             | 0.72 | 2.6E-02 | 7.8E-01 |  7.7  7.3E-05  OK|
 +----------------------+------+---------+---------+------------------+
 ----------------------------------------------------------------------
 COEFFICIENT LOOP ITERATION =   10              CPU SECONDS = 5.338E+01
 ----------------------------------------------------------------------
 |       Equation       | Rate | RMS Res | Max Res |  Linear Solution |
 +----------------------+------+---------+---------+------------------+
 | U-Mom                | 0.96 | 7.2E-04 | 3.3E-02 |       1.3E-02  OK|
 | V-Mom                | 0.95 | 7.3E-04 | 3.3E-02 |       1.4E-02  OK|
 | W-Mom                | 0.54 | 5.3E-04 | 1.4E-02 |       1.9E-02  OK|
 | P-Mass               | 0.47 | 7.3E-05 | 1.7E-03 |  9.4  3.6E-02  OK|
 +----------------------+------+---------+---------+------------------+
 | H-Energy             | 0.57 | 1.8E-05 | 3.4E-04 |  5.5  6.3E-03  OK|
 +----------------------+------+---------+---------+------------------+
 | K-TurbKE             | 0.60 | 1.7E-02 | 3.6E-01 |  5.5  1.6E-03  OK|
 | E-Diss.K             | 0.61 | 1.6E-02 | 5.1E-01 |  7.7  4.8E-05  OK|
 +----------------------+------+---------+---------+------------------+


 ======================================================================
 |                      Timestepping Information                      |
 ----------------------------------------------------------------------
 |       Timestep       |  RMS Courant Number  |  Max Courant Number  |
 +----------------------+----------------------+----------------------+
 |      1.0000E-01      |          3.24        |         23.71        |
 ----------------------------------------------------------------------

 ======================================================================
 TIME STEP =     2 SIMULATION TIME = 2.0000E-01 CPU SECONDS = 5.607E+01
 ----------------------------------------------------------------------
 COEFFICIENT LOOP ITERATION =    1              CPU SECONDS = 5.607E+01
 ----------------------------------------------------------------------
 |       Equation       | Rate | RMS Res | Max Res |  Linear Solution |
 +----------------------+------+---------+---------+------------------+
 | U-Mom                | 0.00 | 5.0E-03 | 1.3E-01 |       3.3E-02  OK|
 | V-Mom                | 0.62 | 1.7E-02 | 2.2E-01 |       1.5E-02  OK|
 | W-Mom                | 0.00 | 1.6E-02 | 4.0E-01 |       9.4E-03  OK|
 | P-Mass               | 5.33 | 5.1E-03 | 1.5E-01 |  9.4  9.9E-02  OK|
 +----------------------+------+---------+---------+------------------+
 | H-Energy             | 0.44 | 1.8E-02 | 2.0E-01 |  5.5  2.1E-03  OK|
 +----------------------+------+---------+---------+------------------+
 | K-TurbKE             | 0.26 | 1.2E-02 | 2.2E-01 |  5.5  5.5E-04  OK|
 | E-Diss.K             | 0.19 | 8.7E-03 | 2.2E-01 |  7.7  3.0E-05  OK|
 +----------------------+------+---------+---------+------------------+
 ----------------------------------------------------------------------
 COEFFICIENT LOOP ITERATION =    2              CPU SECONDS = 5.893E+01
 ----------------------------------------------------------------------
 |       Equation       | Rate | RMS Res | Max Res |  Linear Solution |
 +----------------------+------+---------+---------+------------------+
 | U-Mom                | 0.58 | 2.9E-03 | 6.0E-02 |       2.3E-02  OK|
 | V-Mom                | 0.35 | 6.1E-03 | 6.6E-02 |       1.5E-02  OK|
 | W-Mom                | 0.27 | 4.3E-03 | 9.0E-02 |       2.3E-02  OK|
 | P-Mass               | 0.33 | 1.7E-03 | 3.6E-02 | 13.6  8.9E-02  OK|
 +----------------------+------+---------+---------+------------------+
 | H-Energy             | 0.10 | 1.7E-03 | 4.8E-02 |  5.5  1.1E-03  OK|
 +----------------------+------+---------+---------+------------------+
 | K-TurbKE             | 0.37 | 4.6E-03 | 9.1E-02 |  5.5  2.5E-04  OK|
 | E-Diss.K             | 0.53 | 4.6E-03 | 1.3E-01 |  7.7  6.8E-06  OK|
 +----------------------+------+---------+---------+------------------+
 ----------------------------------------------------------------------
 COEFFICIENT LOOP ITERATION =    3              CPU SECONDS = 6.160E+01
 ----------------------------------------------------------------------
 |       Equation       | Rate | RMS Res | Max Res |  Linear Solution |
 +----------------------+------+---------+---------+------------------+
 | U-Mom                | 0.35 | 1.0E-03 | 1.9E-02 |       3.4E-02  OK|
 | V-Mom                | 0.58 | 3.5E-03 | 6.8E-02 |       2.5E-02  OK|
 | W-Mom                | 0.59 | 2.5E-03 | 5.2E-02 |       3.1E-02  OK|
 | P-Mass               | 0.61 | 1.0E-03 | 1.8E-02 | 13.6  8.6E-02  OK|
 +----------------------+------+---------+---------+------------------+
 | H-Energy             | 0.35 | 6.1E-04 | 2.0E-02 |  5.5  1.6E-03  OK|
 +----------------------+------+---------+---------+------------------+
 | K-TurbKE             | 0.85 | 3.9E-03 | 9.1E-02 |  5.5  1.5E-04  OK|
 | E-Diss.K             | 0.67 | 3.1E-03 | 8.3E-02 |  7.7  8.4E-06  OK|
 +----------------------+------+---------+---------+------------------+
 ----------------------------------------------------------------------
 COEFFICIENT LOOP ITERATION =    4              CPU SECONDS = 6.412E+01
 ----------------------------------------------------------------------
 |       Equation       | Rate | RMS Res | Max Res |  Linear Solution |
 +----------------------+------+---------+---------+------------------+
 | U-Mom                | 0.59 | 5.9E-04 | 1.3E-02 |       3.8E-02  OK|
 | V-Mom                | 0.60 | 2.1E-03 | 5.7E-02 |       3.3E-02  OK|
 | W-Mom                | 0.55 | 1.4E-03 | 3.0E-02 |       4.6E-02  OK|
 | P-Mass               | 0.60 | 6.1E-04 | 8.2E-03 | 13.6  9.6E-02  OK|
 +----------------------+------+---------+---------+------------------+
 | H-Energy             | 0.46 | 2.8E-04 | 8.8E-03 |  5.5  2.2E-03  OK|
 +----------------------+------+---------+---------+------------------+
 | K-TurbKE             | 0.78 | 3.0E-03 | 9.4E-02 |  5.5  1.1E-04  OK|
 | E-Diss.K             | 0.83 | 2.6E-03 | 8.3E-02 |  7.7  4.9E-06  OK|
 +----------------------+------+---------+---------+------------------+
 ----------------------------------------------------------------------
 COEFFICIENT LOOP ITERATION =    5              CPU SECONDS = 6.658E+01
 ----------------------------------------------------------------------
 |       Equation       | Rate | RMS Res | Max Res |  Linear Solution |
 +----------------------+------+---------+---------+------------------+
 | U-Mom                | 0.71 | 4.2E-04 | 1.0E-02 |       2.3E-02  OK|
 | V-Mom                | 0.64 | 1.4E-03 | 4.1E-02 |       2.2E-02  OK|
 | W-Mom                | 0.61 | 8.5E-04 | 1.9E-02 |       2.9E-02  OK|
 | P-Mass               | 0.54 | 3.3E-04 | 4.3E-03 | 17.9  6.8E-02  OK|
 +----------------------+------+---------+---------+------------------+
 | H-Energy             | 0.51 | 1.5E-04 | 3.6E-03 |  5.5  2.7E-03  OK|
 +----------------------+------+---------+---------+------------------+
 | K-TurbKE             | 0.67 | 2.0E-03 | 8.9E-02 |  5.5  1.3E-04  OK|
 | E-Diss.K             | 0.76 | 2.0E-03 | 7.1E-02 |  7.7  4.2E-06  OK|
 +----------------------+------+---------+---------+------------------+
 ----------------------------------------------------------------------
 COEFFICIENT LOOP ITERATION =    6              CPU SECONDS = 6.949E+01
 ----------------------------------------------------------------------
 |       Equation       | Rate | RMS Res | Max Res |  Linear Solution |
 +----------------------+------+---------+---------+------------------+
 | U-Mom                | 0.72 | 3.0E-04 | 7.2E-03 |       2.1E-02  OK|
 | V-Mom                | 0.67 | 9.1E-04 | 2.9E-02 |       2.1E-02  OK|
 | W-Mom                | 0.68 | 5.8E-04 | 1.2E-02 |       2.6E-02  OK|
 | P-Mass               | 0.59 | 1.9E-04 | 2.5E-03 | 17.9  6.7E-02  OK|
 +----------------------+------+---------+---------+------------------+
 | H-Energy             | 0.53 | 7.8E-05 | 1.6E-03 |  5.5  2.5E-03  OK|
 +----------------------+------+---------+---------+------------------+
 | K-TurbKE             | 0.66 | 1.3E-03 | 5.4E-02 |  5.5  1.2E-04  OK|
 | E-Diss.K             | 0.75 | 1.5E-03 | 5.7E-02 |  7.7  4.4E-06  OK|
 +----------------------+------+---------+---------+------------------+
 ----------------------------------------------------------------------
 COEFFICIENT LOOP ITERATION =    7              CPU SECONDS = 7.210E+01
 ----------------------------------------------------------------------
 |       Equation       | Rate | RMS Res | Max Res |  Linear Solution |
 +----------------------+------+---------+---------+------------------+
 | U-Mom                | 0.69 | 2.1E-04 | 4.8E-03 |       3.3E-02  OK|
 | V-Mom                | 0.67 | 6.1E-04 | 2.0E-02 |       3.3E-02  OK|
 | W-Mom                | 0.72 | 4.2E-04 | 8.8E-03 |       3.9E-02  OK|
 | P-Mass               | 0.62 | 1.2E-04 | 1.6E-03 | 13.6  1.0E-01  OK|
 +----------------------+------+---------+---------+------------------+
 | H-Energy             | 0.57 | 4.5E-05 | 6.4E-04 |  5.5  2.2E-03  OK|
 +----------------------+------+---------+---------+------------------+
 | K-TurbKE             | 0.70 | 9.3E-04 | 2.2E-02 |  5.5  8.6E-05  OK|
 | E-Diss.K             | 0.73 | 1.1E-03 | 4.3E-02 |  7.7  4.6E-06  OK|
 +----------------------+------+---------+---------+------------------+
 ----------------------------------------------------------------------
 COEFFICIENT LOOP ITERATION =    8              CPU SECONDS = 7.465E+01
 ----------------------------------------------------------------------
 |       Equation       | Rate | RMS Res | Max Res |  Linear Solution |
 +----------------------+------+---------+---------+------------------+
 | U-Mom                | 0.69 | 1.5E-04 | 3.3E-03 |       2.2E-02  OK|
 | V-Mom                | 0.69 | 4.3E-04 | 1.4E-02 |       2.3E-02  OK|
 | W-Mom                | 0.75 | 3.2E-04 | 8.0E-03 |       2.4E-02  OK|
 | P-Mass               | 0.65 | 7.8E-05 | 1.0E-03 | 17.9  6.9E-02  OK|
 +----------------------+------+---------+---------+------------------+
 | H-Energy             | 0.60 | 2.7E-05 | 4.3E-04 |  5.5  2.4E-03  OK|
 +----------------------+------+---------+---------+------------------+
 | K-TurbKE             | 0.77 | 7.2E-04 | 1.7E-02 |  5.5  1.2E-04  OK|
 | E-Diss.K             | 0.73 | 7.9E-04 | 3.1E-02 |  7.7  4.5E-06  OK|
 +----------------------+------+---------+---------+------------------+
 ----------------------------------------------------------------------
 COEFFICIENT LOOP ITERATION =    9              CPU SECONDS = 7.729E+01
 ----------------------------------------------------------------------
 |       Equation       | Rate | RMS Res | Max Res |  Linear Solution |
 +----------------------+------+---------+---------+------------------+
 | U-Mom                | 0.68 | 9.9E-05 | 2.1E-03 |       3.4E-02  OK|
 | V-Mom                | 0.72 | 3.0E-04 | 9.9E-03 |       3.5E-02  OK|
 | W-Mom                | 0.75 | 2.4E-04 | 6.5E-03 |       3.2E-02  OK|
 | P-Mass               | 0.69 | 5.4E-05 | 6.9E-04 | 13.6  1.0E-01  OK|
 +----------------------+------+---------+---------+------------------+
 | H-Energy             | 0.60 | 1.6E-05 | 3.2E-04 |  5.5  2.2E-03  OK|
 +----------------------+------+---------+---------+------------------+
 | K-TurbKE             | 0.82 | 5.9E-04 | 2.9E-02 |  5.5  2.1E-04  OK|
 | E-Diss.K             | 0.73 | 5.8E-04 | 2.3E-02 |  7.7  4.4E-06  OK|
 +----------------------+------+---------+---------+------------------+
 ----------------------------------------------------------------------
 COEFFICIENT LOOP ITERATION =   10              CPU SECONDS = 7.984E+01
 ----------------------------------------------------------------------
 |       Equation       | Rate | RMS Res | Max Res |  Linear Solution |
 +----------------------+------+---------+---------+------------------+
 | U-Mom                | 0.69 | 6.8E-05 | 1.6E-03 |       2.5E-02  OK|
 | V-Mom                | 0.72 | 2.2E-04 | 7.3E-03 |       2.5E-02  OK|
 | W-Mom                | 0.76 | 1.8E-04 | 5.3E-03 |       2.0E-02  OK|
 | P-Mass               | 0.71 | 3.8E-05 | 5.6E-04 | 17.9  6.8E-02  OK|
 +----------------------+------+---------+---------+------------------+
 | H-Energy             | 0.64 | 1.0E-05 | 2.4E-04 |  5.5  2.5E-03  OK|
 +----------------------+------+---------+---------+------------------+
 | K-TurbKE             | 0.84 | 5.0E-04 | 3.2E-02 |  5.5  2.6E-04  OK|
 | E-Diss.K             | 0.76 | 4.4E-04 | 1.6E-02 |  7.7  4.6E-06  OK|
 +----------------------+------+---------+---------+------------------+


 ======================================================================
 |                      Timestepping Information                      |
 ----------------------------------------------------------------------
 |       Timestep       |  RMS Courant Number  |  Max Courant Number  |
 +----------------------+----------------------+----------------------+
 |      1.0000E-01      |          3.09        |         23.43        |
 ----------------------------------------------------------------------

 ======================================================================
 TIME STEP =     3 SIMULATION TIME = 3.0000E-01 CPU SECONDS = 8.293E+01
 ----------------------------------------------------------------------
 COEFFICIENT LOOP ITERATION =    1              CPU SECONDS = 8.293E+01
 ----------------------------------------------------------------------
 |       Equation       | Rate | RMS Res | Max Res |  Linear Solution |
 +----------------------+------+---------+---------+------------------+
 | U-Mom                | 1.12 | 5.5E-03 | 4.7E-02 |       7.3E-04  OK|
 | V-Mom                | 0.80 | 1.4E-02 | 7.8E-02 |       4.7E-04  OK|
 | W-Mom                | 0.71 | 1.1E-02 | 7.4E-02 |       3.1E-04  OK|
 | P-Mass               | 0.11 | 5.4E-04 | 8.3E-03 | 30.5  6.6E-02  OK|
 +----------------------+------+---------+---------+------------------+
 | H-Energy             | 0.90 | 1.6E-02 | 1.3E-01 |  5.5  3.7E-03  OK|
 +----------------------+------+---------+---------+------------------+
 | K-TurbKE             | 0.70 | 8.5E-03 | 1.1E-01 |  5.5  5.0E-04  OK|
 | E-Diss.K             | 0.91 | 8.0E-03 | 2.1E-01 |  7.7  1.3E-05  OK|
 +----------------------+------+---------+---------+------------------+
 ----------------------------------------------------------------------
 COEFFICIENT LOOP ITERATION =    2              CPU SECONDS = 8.610E+01
 ----------------------------------------------------------------------
 |       Equation       | Rate | RMS Res | Max Res |  Linear Solution |
 +----------------------+------+---------+---------+------------------+
 | U-Mom                | 0.22 | 1.2E-03 | 3.1E-02 |       2.9E-02  OK|
 | V-Mom                | 0.27 | 3.8E-03 | 9.1E-02 |       1.6E-02  OK|
 | W-Mom                | 0.17 | 1.9E-03 | 3.3E-02 |       3.0E-02  OK|
 | P-Mass               | 1.41 | 7.5E-04 | 1.5E-02 | 13.6  7.1E-02  OK|
 +----------------------+------+---------+---------+------------------+
 | H-Energy             | 0.14 | 2.2E-03 | 3.9E-02 |  5.5  1.2E-03  OK|
 +----------------------+------+---------+---------+------------------+
 | K-TurbKE             | 0.46 | 3.9E-03 | 6.0E-02 |  5.5  3.2E-04  OK|
 | E-Diss.K             | 0.35 | 2.8E-03 | 7.3E-02 |  7.7  1.6E-05  OK|
 +----------------------+------+---------+---------+------------------+
 ----------------------------------------------------------------------
 COEFFICIENT LOOP ITERATION =    3              CPU SECONDS = 8.854E+01
 ----------------------------------------------------------------------
 |       Equation       | Rate | RMS Res | Max Res |  Linear Solution |
 +----------------------+------+---------+---------+------------------+
 | U-Mom                | 0.46 | 5.7E-04 | 1.9E-02 |       8.2E-02  OK|
 | V-Mom                | 0.46 | 1.7E-03 | 5.1E-02 |       5.2E-02  OK|
 | W-Mom                | 0.45 | 8.5E-04 | 1.6E-02 |       5.7E-02  OK|
 | P-Mass               | 0.60 | 4.5E-04 | 8.0E-03 |  9.4  9.9E-02  OK|
 +----------------------+------+---------+---------+------------------+
 | H-Energy             | 0.39 | 8.7E-04 | 1.5E-02 |  5.5  1.8E-03  OK|
 +----------------------+------+---------+---------+------------------+
 | K-TurbKE             | 0.53 | 2.0E-03 | 3.7E-02 |  5.5  2.9E-04  OK|
 | E-Diss.K             | 0.46 | 1.3E-03 | 3.6E-02 |  7.7  3.6E-05  OK|
 +----------------------+------+---------+---------+------------------+
 ----------------------------------------------------------------------
 COEFFICIENT LOOP ITERATION =    4              CPU SECONDS = 9.093E+01
 ----------------------------------------------------------------------
 |       Equation       | Rate | RMS Res | Max Res |  Linear Solution |
 +----------------------+------+---------+---------+------------------+
 | U-Mom                | 0.53 | 3.0E-04 | 1.7E-02 |       6.2E-02  OK|
 | V-Mom                | 0.59 | 1.0E-03 | 3.0E-02 |       4.5E-02  OK|
 | W-Mom                | 0.53 | 4.5E-04 | 1.0E-02 |       5.7E-02  OK|
 | P-Mass               | 0.60 | 2.7E-04 | 4.7E-03 | 13.6  7.5E-02  OK|
 +----------------------+------+---------+---------+------------------+
 | H-Energy             | 0.36 | 3.1E-04 | 3.5E-03 |  5.5  3.7E-03  OK|
 +----------------------+------+---------+---------+------------------+
 | K-TurbKE             | 0.56 | 1.1E-03 | 2.4E-02 |  5.5  3.0E-04  OK|
 | E-Diss.K             | 0.48 | 6.2E-04 | 2.2E-02 |  7.7  3.2E-05  OK|
 +----------------------+------+---------+---------+------------------+
 ----------------------------------------------------------------------
 COEFFICIENT LOOP ITERATION =    5              CPU SECONDS = 9.346E+01
 ----------------------------------------------------------------------
 |       Equation       | Rate | RMS Res | Max Res |  Linear Solution |
 +----------------------+------+---------+---------+------------------+
 | U-Mom                | 0.64 | 1.9E-04 | 9.6E-03 |       4.6E-02  OK|
 | V-Mom                | 0.58 | 6.0E-04 | 1.9E-02 |       3.6E-02  OK|
 | W-Mom                | 0.61 | 2.8E-04 | 6.7E-03 |       4.2E-02  OK|
 | P-Mass               | 0.61 | 1.6E-04 | 3.0E-03 | 13.6  8.0E-02  OK|
 +----------------------+------+---------+---------+------------------+
 | H-Energy             | 0.58 | 1.8E-04 | 3.1E-03 |  5.5  3.0E-03  OK|
 +----------------------+------+---------+---------+------------------+
 | K-TurbKE             | 0.66 | 7.5E-04 | 1.6E-02 |  5.5  2.0E-04  OK|
 | E-Diss.K             | 0.67 | 4.2E-04 | 1.4E-02 |  7.7  1.0E-05  OK|
 +----------------------+------+---------+---------+------------------+
 ----------------------------------------------------------------------
 COEFFICIENT LOOP ITERATION =    6              CPU SECONDS = 9.615E+01
 ----------------------------------------------------------------------
 |       Equation       | Rate | RMS Res | Max Res |  Linear Solution |
 +----------------------+------+---------+---------+------------------+
 | U-Mom                | 0.72 | 1.4E-04 | 6.3E-03 |       4.3E-02  OK|
 | V-Mom                | 0.70 | 4.2E-04 | 1.2E-02 |       3.8E-02  OK|
 | W-Mom                | 0.71 | 2.0E-04 | 5.3E-03 |       4.8E-02  OK|
 | P-Mass               | 0.63 | 1.0E-04 | 1.9E-03 | 13.6  8.1E-02  OK|
 +----------------------+------+---------+---------+------------------+
 | H-Energy             | 0.61 | 1.1E-04 | 1.9E-03 |  5.5  2.7E-03  OK|
 +----------------------+------+---------+---------+------------------+
 | K-TurbKE             | 0.70 | 5.2E-04 | 1.3E-02 |  5.5  1.7E-04  OK|
 | E-Diss.K             | 0.79 | 3.3E-04 | 9.8E-03 |  7.7  9.7E-06  OK|
 +----------------------+------+---------+---------+------------------+
 ----------------------------------------------------------------------
 COEFFICIENT LOOP ITERATION =    7              CPU SECONDS = 9.863E+01
 ----------------------------------------------------------------------
 |       Equation       | Rate | RMS Res | Max Res |  Linear Solution |
 +----------------------+------+---------+---------+------------------+
 | U-Mom                | 0.74 | 1.0E-04 | 4.1E-03 |       3.5E-02  OK|
 | V-Mom                | 0.70 | 2.9E-04 | 8.9E-03 |       3.4E-02  OK|
 | W-Mom                | 0.75 | 1.5E-04 | 3.3E-03 |       3.9E-02  OK|
 | P-Mass               | 0.65 | 6.7E-05 | 1.2E-03 | 13.6  8.5E-02  OK|
 +----------------------+------+---------+---------+------------------+
 | H-Energy             | 0.63 | 6.9E-05 | 1.2E-03 |  5.5  2.5E-03  OK|
 +----------------------+------+---------+---------+------------------+
 | K-TurbKE             | 0.75 | 3.9E-04 | 9.7E-03 |  5.5  1.1E-04  OK|
 | E-Diss.K             | 0.84 | 2.8E-04 | 8.4E-03 |  7.7  5.1E-06  OK|
 +----------------------+------+---------+---------+------------------+
 ----------------------------------------------------------------------
 COEFFICIENT LOOP ITERATION =    8              CPU SECONDS = 1.011E+02
 ----------------------------------------------------------------------
 |       Equation       | Rate | RMS Res | Max Res |  Linear Solution |
 +----------------------+------+---------+---------+------------------+
 | U-Mom                | 0.74 | 7.7E-05 | 2.7E-03 |       2.9E-02  OK|
 | V-Mom                | 0.72 | 2.1E-04 | 7.2E-03 |       3.0E-02  OK|
 | W-Mom                | 0.80 | 1.2E-04 | 2.7E-03 |       3.1E-02  OK|
 | P-Mass               | 0.68 | 4.6E-05 | 7.2E-04 | 13.6  8.6E-02  OK|
 +----------------------+------+---------+---------+------------------+
 | H-Energy             | 0.64 | 4.4E-05 | 9.0E-04 |  5.5  2.4E-03  OK|
 +----------------------+------+---------+---------+------------------+
 | K-TurbKE             | 0.76 | 3.0E-04 | 7.1E-03 |  5.5  1.0E-04  OK|
 | E-Diss.K             | 0.79 | 2.2E-04 | 7.7E-03 |  7.7  4.7E-06  OK|
 +----------------------+------+---------+---------+------------------+
 ----------------------------------------------------------------------
 COEFFICIENT LOOP ITERATION =    9              CPU SECONDS = 1.036E+02
 ----------------------------------------------------------------------
 |       Equation       | Rate | RMS Res | Max Res |  Linear Solution |
 +----------------------+------+---------+---------+------------------+
 | U-Mom                | 0.74 | 5.6E-05 | 1.7E-03 |       2.5E-02  OK|
 | V-Mom                | 0.73 | 1.6E-04 | 5.8E-03 |       2.8E-02  OK|
 | W-Mom                | 0.81 | 9.5E-05 | 2.6E-03 |       2.6E-02  OK|
 | P-Mass               | 0.70 | 3.2E-05 | 5.3E-04 | 13.6  8.6E-02  OK|
 +----------------------+------+---------+---------+------------------+
 | H-Energy             | 0.66 | 2.9E-05 | 6.7E-04 |  5.5  2.3E-03  OK|
 +----------------------+------+---------+---------+------------------+
 | K-TurbKE             | 0.79 | 2.4E-04 | 5.3E-03 |  5.5  8.1E-05  OK|
 | E-Diss.K             | 0.78 | 1.7E-04 | 6.5E-03 |  7.7  3.5E-06  OK|
 +----------------------+------+---------+---------+------------------+
 ----------------------------------------------------------------------
 COEFFICIENT LOOP ITERATION =   10              CPU SECONDS = 1.060E+02
 ----------------------------------------------------------------------
 |       Equation       | Rate | RMS Res | Max Res |  Linear Solution |
 +----------------------+------+---------+---------+------------------+
 | U-Mom                | 0.74 | 4.1E-05 | 1.2E-03 |       2.2E-02  OK|
 | V-Mom                | 0.74 | 1.2E-04 | 4.6E-03 |       2.6E-02  OK|
 | W-Mom                | 0.81 | 7.7E-05 | 2.3E-03 |       2.4E-02  OK|
 | P-Mass               | 0.73 | 2.3E-05 | 4.2E-04 | 13.6  8.4E-02  OK|
 +----------------------+------+---------+---------+------------------+
 | H-Energy             | 0.68 | 2.0E-05 | 5.1E-04 |  5.5  2.2E-03  OK|
 +----------------------+------+---------+---------+------------------+
 | K-TurbKE             | 0.81 | 1.9E-04 | 4.4E-03 |  5.5  6.9E-05  OK|
 | E-Diss.K             | 0.77 | 1.3E-04 | 5.1E-03 |  7.7  3.7E-06  OK|
 +----------------------+------+---------+---------+------------------+


 ======================================================================
 |                      Timestepping Information                      |
 ----------------------------------------------------------------------
 |       Timestep       |  RMS Courant Number  |  Max Courant Number  |
 +----------------------+----------------------+----------------------+
 |      1.0000E-01      |          3.04        |         23.70        |
 ----------------------------------------------------------------------

 ======================================================================
 TIME STEP =     4 SIMULATION TIME = 4.0000E-01 CPU SECONDS = 1.088E+02
 ----------------------------------------------------------------------
 COEFFICIENT LOOP ITERATION =    1              CPU SECONDS = 1.088E+02
 ----------------------------------------------------------------------
 |       Equation       | Rate | RMS Res | Max Res |  Linear Solution |
 +----------------------+------+---------+---------+------------------+
 | U-Mom                | 0.35 | 1.9E-03 | 3.7E-02 |       1.6E-03  OK|
 | V-Mom                | 0.20 | 2.8E-03 | 7.9E-02 |       1.8E-03  OK|
 | W-Mom                | 0.20 | 2.3E-03 | 2.4E-02 |       1.9E-03  OK|
 | P-Mass               | 0.63 | 3.4E-04 | 6.0E-03 | 13.6  6.9E-02  OK|
 +----------------------+------+---------+---------+------------------+
 | H-Energy             | 1.01 | 1.6E-02 | 1.0E-01 |  5.5  7.7E-03  OK|
 +----------------------+------+---------+---------+------------------+
 | K-TurbKE             | 0.85 | 7.2E-03 | 1.0E-01 |  5.5  2.4E-04  OK|
 | E-Diss.K             | 0.40 | 3.2E-03 | 7.6E-02 |  7.7  3.3E-05  OK|
 +----------------------+------+---------+---------+------------------+
 ----------------------------------------------------------------------
 COEFFICIENT LOOP ITERATION =    2              CPU SECONDS = 1.112E+02
 ----------------------------------------------------------------------
 |       Equation       | Rate | RMS Res | Max Res |  Linear Solution |
 +----------------------+------+---------+---------+------------------+
 | U-Mom                | 0.57 | 1.1E-03 | 3.1E-02 |       7.7E-03  OK|
 | V-Mom                | 1.15 | 3.2E-03 | 5.8E-02 |       2.4E-03  OK|
 | W-Mom                | 0.50 | 1.1E-03 | 2.7E-02 |       1.0E-02  OK|
 | P-Mass               | 0.46 | 1.5E-04 | 2.3E-03 |  9.4  9.1E-02  OK|
 +----------------------+------+---------+---------+------------------+
 | H-Energy             | 0.10 | 1.6E-03 | 2.0E-02 |  5.5  2.5E-03  OK|
 +----------------------+------+---------+---------+------------------+
 | K-TurbKE             | 0.51 | 3.7E-03 | 6.7E-02 |  5.5  1.7E-04  OK|
 | E-Diss.K             | 0.54 | 1.7E-03 | 4.7E-02 |  7.7  3.8E-05  OK|
 +----------------------+------+---------+---------+------------------+
 ----------------------------------------------------------------------
 COEFFICIENT LOOP ITERATION =    3              CPU SECONDS = 1.136E+02
 ----------------------------------------------------------------------
 |       Equation       | Rate | RMS Res | Max Res |  Linear Solution |
 +----------------------+------+---------+---------+------------------+
 | U-Mom                | 0.45 | 4.9E-04 | 1.7E-02 |       3.8E-02  OK|
 | V-Mom                | 0.30 | 9.6E-04 | 2.1E-02 |       2.5E-02  OK|
 | W-Mom                | 0.42 | 4.7E-04 | 1.3E-02 |       4.3E-02  OK|
 | P-Mass               | 1.06 | 1.6E-04 | 2.3E-03 |  5.2  9.3E-02  OK|
 +----------------------+------+---------+---------+------------------+
 | H-Energy             | 0.48 | 7.8E-04 | 1.4E-02 |  5.5  2.2E-03  OK|
 +----------------------+------+---------+---------+------------------+
 | K-TurbKE             | 0.58 | 2.1E-03 | 3.8E-02 |  5.5  1.5E-04  OK|
 | E-Diss.K             | 0.59 | 1.0E-03 | 2.9E-02 |  7.7  2.3E-05  OK|
 +----------------------+------+---------+---------+------------------+
 ----------------------------------------------------------------------
 COEFFICIENT LOOP ITERATION =    4              CPU SECONDS = 1.158E+02
 ----------------------------------------------------------------------
 |       Equation       | Rate | RMS Res | Max Res |  Linear Solution |
 +----------------------+------+---------+---------+------------------+
 | U-Mom                | 0.46 | 2.3E-04 | 1.4E-02 |       3.1E-02  OK|
 | V-Mom                | 0.49 | 4.7E-04 | 1.6E-02 |       2.1E-02  OK|
 | W-Mom                | 0.47 | 2.2E-04 | 1.1E-02 |       3.4E-02  OK|
 | P-Mass               | 0.55 | 9.1E-05 | 1.3E-03 |  9.4  7.8E-02  OK|
 +----------------------+------+---------+---------+------------------+
 | H-Energy             | 0.37 | 2.9E-04 | 4.3E-03 |  5.5  1.8E-03  OK|
 +----------------------+------+---------+---------+------------------+
 | K-TurbKE             | 0.59 | 1.2E-03 | 2.7E-02 |  5.5  1.3E-04  OK|
 | E-Diss.K             | 0.59 | 6.0E-04 | 1.7E-02 |  7.7  2.0E-05  OK|
 +----------------------+------+---------+---------+------------------+
 ----------------------------------------------------------------------
 COEFFICIENT LOOP ITERATION =    5              CPU SECONDS = 1.182E+02
 ----------------------------------------------------------------------
 |       Equation       | Rate | RMS Res | Max Res |  Linear Solution |
 +----------------------+------+---------+---------+------------------+
 | U-Mom                | 0.63 | 1.4E-04 | 9.7E-03 |       2.7E-02  OK|
 | V-Mom                | 0.57 | 2.7E-04 | 1.3E-02 |       2.0E-02  OK|
 | W-Mom                | 0.65 | 1.4E-04 | 7.1E-03 |       2.7E-02  OK|
 | P-Mass               | 0.53 | 4.9E-05 | 9.1E-04 | 13.6  7.0E-02  OK|
 +----------------------+------+---------+---------+------------------+
 | H-Energy             | 0.57 | 1.7E-04 | 3.2E-03 |  5.5  1.9E-03  OK|
 +----------------------+------+---------+---------+------------------+
 | K-TurbKE             | 0.64 | 8.0E-04 | 1.8E-02 |  5.5  1.1E-04  OK|
 | E-Diss.K             | 0.58 | 3.5E-04 | 1.1E-02 |  7.7  1.8E-05  OK|
 +----------------------+------+---------+---------+------------------+
 ----------------------------------------------------------------------
 COEFFICIENT LOOP ITERATION =    6              CPU SECONDS = 1.211E+02
 ----------------------------------------------------------------------
 |       Equation       | Rate | RMS Res | Max Res |  Linear Solution |
 +----------------------+------+---------+---------+------------------+
 | U-Mom                | 0.65 | 9.2E-05 | 6.1E-03 |       3.2E-02  OK|
 | V-Mom                | 0.64 | 1.7E-04 | 9.4E-03 |       2.4E-02  OK|
 | W-Mom                | 0.64 | 9.2E-05 | 4.5E-03 |       3.1E-02  OK|
 | P-Mass               | 0.54 | 2.6E-05 | 4.9E-04 | 13.6  8.1E-02  OK|
 +----------------------+------+---------+---------+------------------+
 | H-Energy             | 0.60 | 9.9E-05 | 2.3E-03 |  5.5  1.6E-03  OK|
 +----------------------+------+---------+---------+------------------+
 | K-TurbKE             | 0.61 | 4.9E-04 | 1.4E-02 |  5.5  1.1E-04  OK|
 | E-Diss.K             | 0.61 | 2.1E-04 | 7.2E-03 |  7.7  1.7E-05  OK|
 +----------------------+------+---------+---------+------------------+
 ----------------------------------------------------------------------
 COEFFICIENT LOOP ITERATION =    7              CPU SECONDS = 1.238E+02
 ----------------------------------------------------------------------
 |       Equation       | Rate | RMS Res | Max Res |  Linear Solution |
 +----------------------+------+---------+---------+------------------+
 | U-Mom                | 0.68 | 6.2E-05 | 4.1E-03 |       3.6E-02  OK|
 | V-Mom                | 0.67 | 1.2E-04 | 6.9E-03 |       2.8E-02  OK|
 | W-Mom                | 0.68 | 6.3E-05 | 2.8E-03 |       3.5E-02  OK|
 | P-Mass               | 0.63 | 1.6E-05 | 3.1E-04 | 13.6  9.2E-02  OK|
 +----------------------+------+---------+---------+------------------+
 | H-Energy             | 0.60 | 6.0E-05 | 1.6E-03 |  5.5  1.4E-03  OK|
 +----------------------+------+---------+---------+------------------+
 | K-TurbKE             | 0.62 | 3.0E-04 | 9.1E-03 |  5.5  1.2E-04  OK|
 | E-Diss.K             | 0.62 | 1.3E-04 | 5.2E-03 |  7.7  1.7E-05  OK|
 +----------------------+------+---------+---------+------------------+
 ----------------------------------------------------------------------
 COEFFICIENT LOOP ITERATION =    8              CPU SECONDS = 1.269E+02
 ----------------------------------------------------------------------
 |       Equation       | Rate | RMS Res | Max Res |  Linear Solution |
 +----------------------+------+---------+---------+------------------+
 | U-Mom                | 0.68 | 4.2E-05 | 3.2E-03 |       2.5E-02  OK|
 | V-Mom                | 0.68 | 7.9E-05 | 5.2E-03 |       2.1E-02  OK|
 | W-Mom                | 0.70 | 4.4E-05 | 1.7E-03 |       2.5E-02  OK|
 | P-Mass               | 0.66 | 1.1E-05 | 2.2E-04 | 17.9  6.7E-02  OK|
 +----------------------+------+---------+---------+------------------+
 | H-Energy             | 0.61 | 3.7E-05 | 1.1E-03 |  5.5  1.3E-03  OK|
 +----------------------+------+---------+---------+------------------+
 | K-TurbKE             | 0.66 | 2.0E-04 | 5.6E-03 |  5.5  1.2E-04  OK|
 | E-Diss.K             | 0.64 | 8.5E-05 | 3.2E-03 |  7.7  1.6E-05  OK|
 +----------------------+------+---------+---------+------------------+


 ======================================================================
 |                      Timestepping Information                      |
 ----------------------------------------------------------------------
 |       Timestep       |  RMS Courant Number  |  Max Courant Number  |
 +----------------------+----------------------+----------------------+
 |      1.0000E-01      |          3.01        |         24.10        |
 ----------------------------------------------------------------------

 ======================================================================
 TIME STEP =     5 SIMULATION TIME = 5.0000E-01 CPU SECONDS = 1.304E+02
 ----------------------------------------------------------------------
 COEFFICIENT LOOP ITERATION =    1              CPU SECONDS = 1.304E+02
 ----------------------------------------------------------------------
 |       Equation       | Rate | RMS Res | Max Res |  Linear Solution |
 +----------------------+------+---------+---------+------------------+
 | U-Mom                | 0.87 | 1.7E-03 | 3.1E-02 |       1.2E-03  OK|
 | V-Mom                | 1.09 | 3.1E-03 | 8.3E-02 |       1.2E-03  OK|
 | W-Mom                | 0.82 | 1.9E-03 | 2.7E-02 |       1.3E-03  OK|
 | P-Mass               | 0.69 | 2.3E-04 | 4.3E-03 |  9.4  3.4E-02  OK|
 +----------------------+------+---------+---------+------------------+
 | H-Energy             | 0.95 | 1.6E-02 | 9.0E-02 |  5.5  8.3E-03  OK|
 +----------------------+------+---------+---------+------------------+
 | K-TurbKE             | 0.95 | 6.8E-03 | 9.1E-02 |  5.5  2.0E-04  OK|
 | E-Diss.K             | 0.67 | 2.1E-03 | 9.1E-02 |  7.7  4.2E-05  OK|
 +----------------------+------+---------+---------+------------------+
 ----------------------------------------------------------------------
 COEFFICIENT LOOP ITERATION =    2              CPU SECONDS = 1.334E+02
 ----------------------------------------------------------------------
 |       Equation       | Rate | RMS Res | Max Res |  Linear Solution |
 +----------------------+------+---------+---------+------------------+
 | U-Mom                | 0.63 | 1.1E-03 | 3.5E-02 |       5.8E-03  OK|
 | V-Mom                | 0.80 | 2.4E-03 | 3.8E-02 |       1.8E-03  OK|
 | W-Mom                | 0.44 | 8.1E-04 | 2.1E-02 |       5.0E-03  OK|
 | P-Mass               | 0.43 | 1.0E-04 | 2.0E-03 |  9.4  4.9E-02  OK|
 +----------------------+------+---------+---------+------------------+
 | H-Energy             | 0.09 | 1.3E-03 | 1.7E-02 |  5.6  3.1E-03  OK|
 +----------------------+------+---------+---------+------------------+
 | K-TurbKE             | 0.51 | 3.5E-03 | 6.3E-02 |  5.5  1.5E-04  OK|
 | E-Diss.K             | 0.56 | 1.2E-03 | 5.2E-02 |  7.7  3.0E-05  OK|
 +----------------------+------+---------+---------+------------------+
 ----------------------------------------------------------------------
 COEFFICIENT LOOP ITERATION =    3              CPU SECONDS = 1.360E+02
 ----------------------------------------------------------------------
 |       Equation       | Rate | RMS Res | Max Res |  Linear Solution |
 +----------------------+------+---------+---------+------------------+
 | U-Mom                | 0.34 | 3.6E-04 | 1.5E-02 |       3.2E-02  OK|
 | V-Mom                | 0.26 | 6.4E-04 | 1.4E-02 |       2.4E-02  OK|
 | W-Mom                | 0.44 | 3.6E-04 | 7.3E-03 |       3.8E-02  OK|
 | P-Mass               | 1.13 | 1.1E-04 | 1.7E-03 |  5.2  6.5E-02  OK|
 +----------------------+------+---------+---------+------------------+
 | H-Energy             | 0.48 | 6.5E-04 | 9.0E-03 |  5.5  1.6E-03  OK|
 +----------------------+------+---------+---------+------------------+
 | K-TurbKE             | 0.50 | 1.8E-03 | 4.0E-02 |  5.5  1.5E-04  OK|
 | E-Diss.K             | 0.58 | 7.0E-04 | 2.9E-02 |  7.7  2.2E-05  OK|
 +----------------------+------+---------+---------+------------------+
 ----------------------------------------------------------------------
 COEFFICIENT LOOP ITERATION =    4              CPU SECONDS = 1.388E+02
 ----------------------------------------------------------------------
 |       Equation       | Rate | RMS Res | Max Res |  Linear Solution |
 +----------------------+------+---------+---------+------------------+
 | U-Mom                | 0.43 | 1.6E-04 | 7.5E-03 |       5.3E-02  OK|
 | V-Mom                | 0.45 | 2.9E-04 | 1.2E-02 |       4.6E-02  OK|
 | W-Mom                | 0.46 | 1.6E-04 | 5.8E-03 |       5.8E-02  OK|
 | P-Mass               | 0.56 | 6.3E-05 | 8.7E-04 |  5.2  7.3E-02  OK|
 +----------------------+------+---------+---------+------------------+
 | H-Energy             | 0.44 | 2.8E-04 | 5.0E-03 |  5.5  1.1E-03  OK|
 +----------------------+------+---------+---------+------------------+
 | K-TurbKE             | 0.58 | 1.0E-03 | 2.9E-02 |  5.5  1.0E-04  OK|
 | E-Diss.K             | 0.59 | 4.1E-04 | 1.6E-02 |  7.7  2.4E-05  OK|
 +----------------------+------+---------+---------+------------------+
 ----------------------------------------------------------------------
 COEFFICIENT LOOP ITERATION =    5              CPU SECONDS = 1.413E+02
 ----------------------------------------------------------------------
 |       Equation       | Rate | RMS Res | Max Res |  Linear Solution |
 +----------------------+------+---------+---------+------------------+
 | U-Mom                | 0.60 | 9.3E-05 | 5.1E-03 |       6.3E-02  OK|
 | V-Mom                | 0.60 | 1.8E-04 | 8.4E-03 |       5.8E-02  OK|
 | W-Mom                | 0.65 | 1.1E-04 | 4.7E-03 |       6.3E-02  OK|
 | P-Mass               | 0.56 | 3.6E-05 | 4.9E-04 |  5.2  9.2E-02  OK|
 +----------------------+------+---------+---------+------------------+
 | H-Energy             | 0.54 | 1.5E-04 | 3.8E-03 |  5.5  9.2E-04  OK|
 +----------------------+------+---------+---------+------------------+
 | K-TurbKE             | 0.67 | 6.9E-04 | 2.0E-02 |  5.5  9.2E-05  OK|
 | E-Diss.K             | 0.60 | 2.5E-04 | 8.5E-03 |  7.7  1.9E-05  OK|
 +----------------------+------+---------+---------+------------------+
 ----------------------------------------------------------------------
 COEFFICIENT LOOP ITERATION =    6              CPU SECONDS = 1.437E+02
 ----------------------------------------------------------------------
 |       Equation       | Rate | RMS Res | Max Res |  Linear Solution |
 +----------------------+------+---------+---------+------------------+
 | U-Mom                | 0.64 | 5.9E-05 | 2.8E-03 |       2.5E-02  OK|
 | V-Mom                | 0.67 | 1.2E-04 | 5.8E-03 |       2.2E-02  OK|
 | W-Mom                | 0.67 | 7.2E-05 | 3.5E-03 |       2.3E-02  OK|
 | P-Mass               | 0.60 | 2.1E-05 | 2.8E-04 |  9.4  5.3E-02  OK|
 +----------------------+------+---------+---------+------------------+
 | H-Energy             | 0.58 | 8.8E-05 | 2.4E-03 |  5.5  9.4E-04  OK|
 +----------------------+------+---------+---------+------------------+
 | K-TurbKE             | 0.55 | 3.8E-04 | 1.2E-02 |  5.5  1.4E-04  OK|
 | E-Diss.K             | 0.59 | 1.4E-04 | 4.6E-03 |  7.7  2.1E-05  OK|
 +----------------------+------+---------+---------+------------------+
 ----------------------------------------------------------------------
 COEFFICIENT LOOP ITERATION =    7              CPU SECONDS = 1.462E+02
 ----------------------------------------------------------------------
[...]
 ----------------------------------------------------------------------
 COEFFICIENT LOOP ITERATION =    3              CPU SECONDS = 1.419E+03
 ----------------------------------------------------------------------
 |       Equation       | Rate | RMS Res | Max Res |  Linear Solution |
 +----------------------+------+---------+---------+------------------+
 | U-Mom                | 0.27 | 1.9E-04 | 3.6E-03 |       4.3E-02  OK|
 | V-Mom                | 0.30 | 2.2E-04 | 6.5E-03 |       4.4E-02  OK|
 | W-Mom                | 0.35 | 1.8E-04 | 4.7E-03 |       5.7E-02  OK|
 | P-Mass               | 1.19 | 9.5E-05 | 1.9E-03 |  5.2  8.8E-02  OK|
 +----------------------+------+---------+---------+------------------+
 | H-Energy             | 0.37 | 5.7E-04 | 7.5E-03 |  5.5  6.8E-04  OK|
 +----------------------+------+---------+---------+------------------+
 | K-TurbKE             | 0.41 | 4.7E-04 | 1.0E-02 |  5.6  2.2E-03  OK|
 | E-Diss.K             | 0.30 | 2.5E-04 | 1.0E-02 |  7.7  7.0E-04  OK|
 +----------------------+------+---------+---------+------------------+
 ----------------------------------------------------------------------
 COEFFICIENT LOOP ITERATION =    4              CPU SECONDS = 1.421E+03
 ----------------------------------------------------------------------
 |       Equation       | Rate | RMS Res | Max Res |  Linear Solution |
 +----------------------+------+---------+---------+------------------+
 | U-Mom                | 0.53 | 1.0E-04 | 2.1E-03 |       4.5E-02  OK|
 | V-Mom                | 0.52 | 1.2E-04 | 3.7E-03 |       4.6E-02  OK|
 | W-Mom                | 0.59 | 1.0E-04 | 3.6E-03 |       5.3E-02  OK|
 | P-Mass               | 0.54 | 5.2E-05 | 9.9E-04 |  5.2  9.2E-02  OK|
 +----------------------+------+---------+---------+------------------+
 | H-Energy             | 0.50 | 2.8E-04 | 3.6E-03 |  5.5  6.3E-04  OK|
 +----------------------+------+---------+---------+------------------+
 | K-TurbKE             | 0.51 | 2.4E-04 | 5.7E-03 |  5.5  1.8E-03  OK|
 | E-Diss.K             | 0.54 | 1.3E-04 | 7.1E-03 |  7.7  5.5E-04  OK|
 +----------------------+------+---------+---------+------------------+
 ----------------------------------------------------------------------
 COEFFICIENT LOOP ITERATION =    5              CPU SECONDS = 1.424E+03
 ----------------------------------------------------------------------
 |       Equation       | Rate | RMS Res | Max Res |  Linear Solution |
 +----------------------+------+---------+---------+------------------+
 | U-Mom                | 0.60 | 6.2E-05 | 1.7E-03 |       4.5E-02  OK|
 | V-Mom                | 0.61 | 7.1E-05 | 2.1E-03 |       4.6E-02  OK|
 | W-Mom                | 0.65 | 6.8E-05 | 3.0E-03 |       4.9E-02  OK|
 | P-Mass               | 0.56 | 2.9E-05 | 7.1E-04 |  5.2  9.9E-02  OK|
 +----------------------+------+---------+---------+------------------+
 | H-Energy             | 0.56 | 1.6E-04 | 2.0E-03 |  5.6  5.7E-04  OK|
 +----------------------+------+---------+---------+------------------+
 | K-TurbKE             | 0.56 | 1.3E-04 | 3.3E-03 |  5.5  1.7E-03  OK|
 | E-Diss.K             | 0.58 | 7.8E-05 | 4.7E-03 |  7.7  6.2E-04  OK|
 +----------------------+------+---------+---------+------------------+
 ----------------------------------------------------------------------
 COEFFICIENT LOOP ITERATION =    6              CPU SECONDS = 1.426E+03
 ----------------------------------------------------------------------
 |       Equation       | Rate | RMS Res | Max Res |  Linear Solution |
 +----------------------+------+---------+---------+------------------+
 | U-Mom                | 0.64 | 4.0E-05 | 1.3E-03 |       1.1E-02  OK|
 | V-Mom                | 0.64 | 4.6E-05 | 1.3E-03 |       1.2E-02  OK|
 | W-Mom                | 0.68 | 4.6E-05 | 2.4E-03 |       1.3E-02  OK|
 | P-Mass               | 0.59 | 1.7E-05 | 5.4E-04 |  9.4  3.4E-02  OK|
 +----------------------+------+---------+---------+------------------+
 | H-Energy             | 0.58 | 9.1E-05 | 1.3E-03 |  5.5  5.4E-04  OK|
 +----------------------+------+---------+---------+------------------+
 | K-TurbKE             | 0.61 | 8.1E-05 | 2.2E-03 |  5.5  1.8E-03  OK|
 | E-Diss.K             | 0.67 | 5.2E-05 | 3.0E-03 |  7.7  5.9E-04  OK|
 +----------------------+------+---------+---------+------------------+

 ======================================================================
                      Convergence Warnings Summary
 ======================================================================

 +-------------------------+------------------------------------------+
 |     Equation Class      |      Solve Location       | Number of    |
 |                         |                           | Convergence  |
 |                         |                           | Failures     |
 +-------------------------+------------------------------------------+
 | Momentum and Mass       | DEFAULT                   |       3      |
 +-------------------------+---------------------------+--------------+
                   
 CFD Solver finished: Fri Dec  7 11:00:52 2018
 CFD Solver wall clock seconds: 3.5165E+02

 ======================================================================
              Termination and Interrupt Condition Summary
 ======================================================================
    
 CFD Solver: Run duration reached
   (Maximum simulation time)

 ======================================================================
              Boundary Flow and Total Source Term Summary
 ======================================================================

 +--------------------------------------------------------------------+
 |                               U-Mom                                |
 +--------------------------------------------------------------------+
 Boundary         : Default Domain Default                 -4.0886E+01
 Boundary         : in1                                     1.9846E-07
 Boundary         : in2                                    -2.2677E-05
 Boundary         : out                                     2.5161E+01
 Neg Accumulation : Default Domain                          1.4695E+01
                                                           -----------
 Domain Imbalance :                                        -1.0303E+00

 +--------------------------------------------------------------------+
 |                               V-Mom                                |
 +--------------------------------------------------------------------+
 Boundary         : Default Domain Default                  2.7379E+01
 Boundary         : in1                                     1.5401E+04
 Boundary         : in2                                    -1.5354E+04
 Boundary         : out                                    -4.6964E+01
 Neg Accumulation : Default Domain                         -2.7630E+01
                                                           -----------
 Domain Imbalance :                                        -1.4940E-01

 +--------------------------------------------------------------------+
 |                               W-Mom                                |
 +--------------------------------------------------------------------+
 Boundary         : Default Domain Default                 -1.1752E+04
 Boundary         : in1                                    -7.6366E-06
 Boundary         : in2                                    -8.5545E-06
 Boundary         : out                                     1.1758E+04
 Neg Accumulation : Default Domain                         -3.7656E+00
                                                           -----------
 Domain Imbalance :                                         2.4082E+00

 +--------------------------------------------------------------------+
 |                               P-Mass                               |
 +--------------------------------------------------------------------+
 Boundary         : in1                                     1.5000E+03
 Boundary         : in2                                     1.5000E+03
 Boundary         : out                                    -3.0000E+03
                                                           -----------
 Domain Imbalance :                                         5.3711E-03

 +--------------------------------------------------------------------+
 |                              H-Energy                              |
 +--------------------------------------------------------------------+
 Boundary         : in1                                     1.0569E+08
 Boundary         : in2                                    -8.2484E+07
 Boundary         : out                                     6.0783E+07
 Neg Accumulation : Default Domain                         -8.3921E+07
                                                           -----------
 Domain Imbalance :                                         7.0768E+04


 +--------------------------------------------------------------------+
 |                     Normalised Imbalance Summary                   |
 +--------------------------------------------------------------------+
 |       Equation       |      Maximum Flow     |     Imbalance (%)   |
 +--------------------------------------------------------------------+
 | U-Mom                |       1.5401E+04      |       -0.0067       |
 | V-Mom                |       1.5401E+04      |       -0.0010       |
 | W-Mom                |       1.5401E+04      |        0.0156       |
 | P-Mass               |       3.0000E+03      |        0.0002       |
 +----------------------+-----------------------+---------------------+
 | H-Energy             |       1.0569E+08      |        0.0670       |
 +----------------------+-----------------------+---------------------+

 ======================================================================
                     Wall Force and Moment Summary
 ======================================================================
                                                                          
 Notes:
 1. Pressure integrals exclude the reference pressure.  To include
    it, set the expert parameter 'include pref in forces = t'.


 +--------------------------------------------------------------------+
 |                      Pressure Force On Walls                       |
 +--------------------------------------------------------------------+
                                    X-Comp.      Y-Comp.      Z-Comp.

 Domain Group: Default Domain

 Default Domain Default           3.7992E+01  -3.2654E+01   1.1885E+04
                                  -----------  -----------  -----------
 Domain Group Totals :            3.7992E+01  -3.2654E+01   1.1885E+04


 +--------------------------------------------------------------------+
 |                       Viscous Force On Walls                       |
 +--------------------------------------------------------------------+
                                    X-Comp.      Y-Comp.      Z-Comp.

 Domain Group: Default Domain

 Default Domain Default           2.9916E+00   5.3236E+00  -1.3269E+02
                                  -----------  -----------  -----------
 Domain Group Totals :            2.9916E+00   5.3236E+00  -1.3269E+02


 +--------------------------------------------------------------------+
 |                      Pressure Moment On Walls                      |
 +--------------------------------------------------------------------+
                                    X-Comp.      Y-Comp.      Z-Comp.

 Domain Group: Default Domain

 Default Domain Default           4.9802E+02   4.4988E+02  -2.0481E+04
                                  -----------  -----------  -----------
 Domain Group Totals :            4.9802E+02   4.4988E+02  -2.0481E+04


 +--------------------------------------------------------------------+
 |                       Viscous Moment On Walls                      |
 +--------------------------------------------------------------------+
                                    X-Comp.      Y-Comp.      Z-Comp.

 Domain Group: Default Domain

 Default Domain Default          -9.0432E-01  -5.0479E+00  -5.8532E+02
                                  -----------  -----------  -----------
 Domain Group Totals :           -9.0432E-01  -5.0479E+00  -5.8532E+02


 +--------------------------------------------------------------------+
 |                   Locations of Maximum Residuals                   |
 +--------------------------------------------------------------------+
 |       Equation       |      Domain Name      |     Node Number     |
 +--------------------------------------------------------------------+
 | U-Mom                | Default Domain        |          33933      |
 | V-Mom                | Default Domain        |          22898      |
 | W-Mom                | Default Domain        |          34015      |
 | P-Mass               | Default Domain        |          34011      |
 +----------------------+-----------------------+---------------------+
 | H-Energy             | Default Domain        |          28731      |
 +----------------------+-----------------------+---------------------+
 | K-TurbKE             | Default Domain        |          19608      |
 | E-Diss.K             | Default Domain        |          33468      |
 +----------------------+-----------------------+---------------------+

 +--------------------------------------------------------------------+
 |                     Average Scale Information                      |
 +--------------------------------------------------------------------+

 Domain Name : Default Domain
     Global Length                                         = 3.2160E+00
     Minimum Extent                                        = 4.0000E+00
     Maximum Extent                                        = 6.0000E+00
     Density                                               = 9.9700E+02
     Dynamic Viscosity                                     = 8.8990E-04
     Velocity                                              = 2.1066E+00
     Advection Time                                        = 1.5266E+00
     RMS Courant Number                                    = 3.4764E+00
     Maximum Courant Number                                = 2.2268E+01
     Reynolds Number                                       = 7.5902E+06
     Thermal Conductivity                                  = 6.0690E-01
     Specific Heat Capacity at Constant Pressure           = 4.1817E+03
     Prandtl Number                                        = 6.1316E+00
     Temperature Range                                     = 3.0119E+01

 +--------------------------------------------------------------------+
 |                     Variable Range Information                     |
 +--------------------------------------------------------------------+

 Domain Name : Default Domain
 +--------------------------------------------------------------------+
 |      Variable Name                         |    min    |    max    |
 +--------------------------------------------------------------------+
 | Density                                    |  9.97E+02 |  9.97E+02 |
 | Specific Heat Capacity at Constant Pressure|  4.18E+03 |  4.18E+03 |
 | Dynamic Viscosity                          |  8.90E-04 |  8.90E-04 |
 | Thermal Conductivity                       |  6.07E-01 |  6.07E-01 |
 | Static Entropy                             | -1.89E+02 |  2.31E+02 |
 | Velocity u                                 | -3.08E+00 |  3.22E+00 |
 | Velocity v                                 | -3.69E+00 |  3.71E+00 |
 | Velocity w                                 | -4.66E+00 |  2.00E+00 |
 | Pressure                                   | -5.25E+03 |  1.81E+04 |
 | Turbulence Kinetic Energy                  |  2.42E-05 |  7.78E-01 |
 | Turbulence Eddy Dissipation                |  7.23E-05 |  3.69E+01 |
 | Eddy Viscosity                             |  3.00E-04 |  2.93E+01 |
 | Temperature                                |  2.85E+02 |  3.15E+02 |
 | Static Enthalpy                            | -5.52E+04 |  7.07E+04 |
 +--------------------------------------------------------------------+

 +--------------------------------------------------------------------+
 |           CPU Requirements of Numerical Solution - Total           |
 +--------------------------------------------------------------------+

 Subsystem Name                  Discretization       Linear Solution
                                (secs.   %total)     (secs.   %total) 
 ----------------------------------------------------------------------
 Momentum and Mass              4.10E+02  28.5 %     1.89E+02  13.1 %
 Heat Transfer                  1.09E+02   7.6 %     5.76E+01   4.0 %
 TurbKE and Diss.K              1.64E+02  11.4 %     1.19E+02   8.3 %
                                -------- -------     --------  ------
 Subsystem Summary              6.83E+02  47.5 %     3.65E+02  25.4 %

 File Reading                   7.79E-01    0.1 %
 Search Calculations            2.01E-03    0.0 %
 Variable Updates               1.42E+02    9.9 %
 File Writing                   2.60E+01    1.8 %
 Miscellaneous                  2.21E+02   15.4 %
                                --------
 Total                          1.44E+03

 +--------------------------------------------------------------------+
 |                   Job Information at End of Run                    |
 +--------------------------------------------------------------------+

 Job finished:   Fri Dec  7 11:00:54 2018

 Total wall clock time: 3.597E+02 seconds
             or: (          0:         0:         5:    59.664 )
                 (       Days:     Hours:   Minutes:   Seconds )



 --> Final synchronization point reached by all partitions.
End of solution stage.

 +--------------------------------------------------------------------+
 | The following transient and backup files written by the ANSYS CFX  |
 | solver have been saved in the directory                            |
 | H:/dos/CFD/CW/CFD-Static-Mixer/StaticMixerDX_pending/dp6_CFX_Solu- |
 | tion/Fluid Flow CFX_001:                                           |
 |                                                                    |
 | 75_full.trn, 70_full.trn, 65_full.trn, 60_full.trn, 5_full.trn,    |
 | 55_full.trn, 50_full.trn, 45_full.trn, 40_full.trn, 35_full.trn,   |
 | 30_full.trn, 25_full.trn, 20_full.trn, 15_full.trn, 10_full.trn,   |
 | 0_full.trn                                                         |
 +--------------------------------------------------------------------+


 +--------------------------------------------------------------------+
 | The results from this run of the ANSYS CFX Solver have been        |
 | written to                                                         |
 | H:/dos/CFD/CW/CFD-Static-Mixer/StaticMixerDX_pending/dp6_CFX_Solu- |
 | tion/Fluid Flow CFX_001.res                                        |
 +--------------------------------------------------------------------+


 +--------------------------------------------------------------------+
 | For CFX runs launched from Workbench, the final locations of       |
 | directories and files generated may differ from those shown.       |
 +--------------------------------------------------------------------+


 +--------------------------------------------------------------------+
 |                              Warning!                              |
 |                                                                    |
 | After waiting for 60 seconds, 1 solver manager process(es) appear  |
 | not to have noticed that this run has ended.  You may get errors   |
 | removing some files if they are still open in the solver manager.  |
 +--------------------------------------------------------------------+


This run of the ANSYS CFX Solver has finished.
