 This run of the CFX Release 19.1 Solver started at 14:31:40 on 06 Dec
 2018 by user jc2182 on ENPC-LAB137 (intel_xeon64.sse2_winnt) using the
 command:
 
  "C:\Program Files\ANSYS Inc\v191\CFX\bin\perllib\cfx5solve.pl" -batch
    -ccl runInput.ccl -fullname "Fluid Flow CFX_009"
 
 Release 19.1
 
  Point Releases and Patches installed:
  ANSYS, Inc. Products Release 19.1
  SpaceClaim Release 19.1
  Autodyn Release 19.1
  LS-DYNA Release 19.1
  CFD-Post only Release 19.1
  CFX (includes CFD-Post) Release 19.1
  Chemkin Release 19.1
  EnSight Release 19.1
  FENSAP-ICE Release 19.1
  Fluent (includes CFD-Post) Release 19.1
  Forte Release 19.1
  Polyflow (includes CFD-Post) Release 19.1
  TurboGrid Release 19.1
  ICEM CFD Release 19.1
  Customization Files for User Programmable Features Release 19.1
  Mechanical Products Release 19.1
  Icepak (includes CFD-Post) Release 19.1
  Remote Solve Manager Standalone Services Release 19.1
  ACIS Geometry Interface Release 19.1
  Catia, Version 5 Geometry Interface Release 19.1
  NX Geometry Interface Release 19.1
  Parasolid Geometry Interface  Release 19.1
  ANSYS, Inc. License Manager Release 19.1
 
 Setting up CFX Solver run ...
 
 
 +--------------------------------------------------------------------+
 |                                                                    |
 |                    CFX Command Language for Run                    |
 |                                                                    |
 +--------------------------------------------------------------------+
 
 LIBRARY:
   CEL:
     EXPRESSIONS:
       inMassFlow = 1000.1065792576104 [kg s^-1]
     END
   END
   MATERIAL: Water
     Material Description = Water (liquid)
     Material Group = Water Data, Constant Property Liquids
     Option = Pure Substance
     Thermodynamic State = Liquid
     PROPERTIES:
       Option = General Material
       EQUATION OF STATE:
         Density = 997.0 [kg m^-3]
         Molar Mass = 18.02 [kg kmol^-1]
         Option = Value
       END
       SPECIFIC HEAT CAPACITY:
         Option = Value
         Specific Heat Capacity = 4181.7 [J kg^-1 K^-1]
         Specific Heat Type = Constant Pressure
       END
       REFERENCE STATE:
         Option = Specified Point
         Reference Pressure = 1 [atm]
         Reference Specific Enthalpy = 0.0 [J/kg]
         Reference Specific Entropy = 0.0 [J/kg/K]
         Reference Temperature = 25 [C]
       END
       DYNAMIC VISCOSITY:
         Dynamic Viscosity = 8.899E-4 [kg m^-1 s^-1]
         Option = Value
       END
       THERMAL CONDUCTIVITY:
         Option = Value
         Thermal Conductivity = 0.6069 [W m^-1 K^-1]
       END
       ABSORPTION COEFFICIENT:
         Absorption Coefficient = 1.0 [m^-1]
         Option = Value
       END
       SCATTERING COEFFICIENT:
         Option = Value
         Scattering Coefficient = 0.0 [m^-1]
       END
       REFRACTIVE INDEX:
         Option = Value
         Refractive Index = 1.0 [m m^-1]
       END
       THERMAL EXPANSIVITY:
         Option = Value
         Thermal Expansivity = 2.57E-04 [K^-1]
       END
     END
   END
 END
 FLOW: Flow Analysis 1
   SOLUTION UNITS:
     Angle Units = [rad]
     Length Units = [m]
     Mass Units = [kg]
     Solid Angle Units = [sr]
     Temperature Units = [K]
     Time Units = [s]
   END
   ANALYSIS TYPE:
     Option = Steady State
     EXTERNAL SOLVER COUPLING:
       Option = None
     END
   END
   DOMAIN: Default Domain
     Coord Frame = Coord 0
     Domain Type = Fluid
     Location = B17
     BOUNDARY: Default Domain Default
       Boundary Type = WALL
       Location = F12.17,F14.17,F16.17,F19.17,F20.17,F21.17
       BOUNDARY CONDITIONS:
         HEAT TRANSFER:
           Option = Adiabatic
         END
         MASS AND MOMENTUM:
           Option = No Slip Wall
         END
         WALL ROUGHNESS:
           Option = Smooth Wall
         END
       END
     END
     BOUNDARY: in1
       Boundary Type = INLET
       Location = in1
       BOUNDARY CONDITIONS:
         FLOW DIRECTION:
           Option = Normal to Boundary Condition
         END
         FLOW REGIME:
           Option = Subsonic
         END
         HEAT TRANSFER:
           Option = Static Temperature
           Static Temperature = 315 [K]
         END
         MASS AND MOMENTUM:
           Mass Flow Rate = inMassFlow
           Mass Flow Rate Area = As Specified
           Option = Mass Flow Rate
         END
         TURBULENCE:
           Option = Medium Intensity and Eddy Viscosity Ratio
         END
       END
     END
     BOUNDARY: in2
       Boundary Type = INLET
       Location = in2
       BOUNDARY CONDITIONS:
         FLOW DIRECTION:
           Option = Normal to Boundary Condition
         END
         FLOW REGIME:
           Option = Subsonic
         END
         HEAT TRANSFER:
           Option = Static Temperature
           Static Temperature = 285 [K]
         END
         MASS AND MOMENTUM:
           Mass Flow Rate = inMassFlow
           Mass Flow Rate Area = As Specified
           Option = Mass Flow Rate
         END
         TURBULENCE:
           Option = Medium Intensity and Eddy Viscosity Ratio
         END
       END
     END
     BOUNDARY: out
       Boundary Type = OUTLET
       Location = out
       BOUNDARY CONDITIONS:
         FLOW REGIME:
           Option = Subsonic
         END
         MASS AND MOMENTUM:
           Option = Static Pressure
           Relative Pressure = 0 [Pa]
         END
       END
     END
     DOMAIN MODELS:
       BUOYANCY MODEL:
         Option = Non Buoyant
       END
       DOMAIN MOTION:
         Option = Stationary
       END
       MESH DEFORMATION:
         Option = None
       END
       REFERENCE PRESSURE:
         Reference Pressure = 1 [atm]
       END
     END
     FLUID DEFINITION: Fluid 1
       Material = Water
       Option = Material Library
       MORPHOLOGY:
         Option = Continuous Fluid
       END
     END
     FLUID MODELS:
       COMBUSTION MODEL:
         Option = None
       END
       HEAT TRANSFER MODEL:
         Option = Thermal Energy
       END
       THERMAL RADIATION MODEL:
         Option = None
       END
       TURBULENCE MODEL:
         Option = k epsilon
       END
       TURBULENT WALL FUNCTIONS:
         Option = Scalable
       END
     END
   END
   OUTPUT CONTROL:
     RESULTS:
       File Compression Level = Default
       Option = Standard
     END
   END
   SOLVER CONTROL:
     Turbulence Numerics = High Resolution
     ADVECTION SCHEME:
       Option = High Resolution
     END
     CONVERGENCE CONTROL:
       Length Scale Option = Conservative
       Maximum Number of Iterations = 100
       Minimum Number of Iterations = 5
       Timescale Control = Auto Timescale
       Timescale Factor = 1.0
     END
     CONVERGENCE CRITERIA:
       Residual Target = 1.E-4
       Residual Type = RMS
     END
     DYNAMIC MODEL CONTROL:
       Global Dynamic Model Control = On
     END
   END
 END
 COMMAND FILE:
   Version = 19.1
   Results Version = 19.1
 END
 PARAMETERIZATION:
   INPUT FIELD: inMassFlow
     Expression Name = inMassFlow
     Method = Expression
   END
 END
 SIMULATION CONTROL:
   EXECUTION CONTROL:
     EXECUTABLE SELECTION:
       Double Precision = No
       Large Problem = No
     END
     INTERPOLATOR STEP CONTROL:
       Runtime Priority = Standard
       MEMORY CONTROL:
         Memory Allocation Factor = 1.0
       END
     END
     PARALLEL HOST LIBRARY:
       HOST DEFINITION: enpclab137
         Remote Host Name = ENPC-LAB137
         Host Architecture String = winnt-amd64
         Installation Root = C:\Program Files\ANSYS Inc\v%v\CFX
       END
     END
     PARTITIONER STEP CONTROL:
       Multidomain Option = Automatic
       Runtime Priority = Standard
       MEMORY CONTROL:
         Memory Allocation Factor = 1.0
       END
       PARTITION SMOOTHING:
         Maximum Partition Smoothing Sweeps = 100
         Option = Smooth
       END
       PARTITIONING TYPE:
         MeTiS Type = k-way
         Option = MeTiS
         Partition Size Rule = Automatic
       END
     END
     RUN DEFINITION:
       Run Mode = Full
       Solver Input File = Fluid Flow CFX.def
       Solver Results File = \
         H:/dos/CFD/CW/CFD-Static-Mixer/StaticMixerDX_pending/dp10_CFX_Solutio\
         n/Fluid Flow CFX_009.res
       INITIAL VALUES SPECIFICATION:
         INITIAL VALUES CONTROL:
           Use Mesh From = Solver Input File
           Continue History From = Workbench Initial Values
         END
         INITIAL VALUES: Workbench Initial Values
           Option = Results File
           File Name = Fluid Flow CFX_008.res
         END
       END
     END
     SOLVER STEP CONTROL:
       Runtime Priority = Standard
       MEMORY CONTROL:
         Memory Allocation Factor = 1.0
       END
       PARALLEL ENVIRONMENT:
         Number of Processes = 1
         Start Method = Serial
       END
     END
   END
 END
 
 
 +--------------------------------------------------------------------+
 |                                                                    |
 |                  Interpolation of Initial Values                   |
 |                                                                    |
 +--------------------------------------------------------------------+
 
 


 +--------------------------------------------------------------------+
 |                                                                    |
 |                    ANSYS(R) CFX(R) Interpolator                    |
 |                                                                    |
 | Release 19.1                                                       |
 | Build 19.1 2018-04-17T13:27:50.069000                              |
 | Tue Apr 17 15:02:11 GMTDT 2018                                     |
 |                                                                    |
 |                        Executable Attributes                       |
 |                                                                    |
 |           single-64bit-int32-archfort-optimised-std-lcomp          |
 |                                                                    |
 | (C) 1996-2018 ANSYS, Inc.                                          |
 |                                                                    |
 | All rights reserved. Unauthorized use, distribution or duplication |
 | is prohibited. This product is subject to U.S. laws governing      |
 | export and re-export. For full Legal Notice, see documentation.    |
 +--------------------------------------------------------------------+




 +--------------------------------------------------------------------+
 |                  Job Information at Start of Run                   |
 +--------------------------------------------------------------------+

 Run mode:       serial run

 Host computer:  ENPC-LAB137 (PID:4700)

 Job started:    Thu Dec  6 14:31:41 2018


 +--------------------------------------------------------------------+
 |        Memory Allocated for Run  (Actual usage may be less)        |
 +--------------------------------------------------------------------+

           | Real       | Integer    | Character | Logical  | Double
 ----------+------------+------------+-----------+----------+----------
 Mwords    |       1.23 |       1.56 |      0.20 |     0.01 |     0.05
 Mbytes    |       4.68 |       5.94 |      0.19 |     0.04 |     0.38
 ----------+------------+------------+-----------+----------+----------


 +--------------------------------------------------------------------+
 |                  Host Memory Information (Mbytes)                  |
 +--------------------------------------------------------------------+
 |          Host           |     System     |   Allocated    |   %    |
 +-------------------------+----------------+----------------+--------+
 | ENPC-LAB137             |     16240.97   |        11.23   |   0.07 |
 +-------------------------+----------------+----------------+--------+

 ======================================================================
               Interpolating Onto Domain "Default Domain"
 ======================================================================

 Total Number of Nodes in the Target Domain              =        16300
 Bounding Box Volume of the Target Mesh                  =  1.01712E+02


 Checking all source domains from the source file:
   Target mesh is different from domain "Default Domain".

 Searching for Candidate Source Domains:
   Domain "Default Domain"
     Number of Mapped Nodes                     =        14540 ( 89.2%)
     Bounding Box Overlap Volume                =  8.09843E+01 ( 79.6%)
   Setting Up Unmapped Nodes:
     Number of Unmapped Nodes                   =         1760 ( 10.8%)

 Start interpolation of variables: 
   Source Domain Name                                    Mapped Nodes
   Default Domain                                        14540 ( 89.2%)

 +--------------------------------------------------------------------+
 |                     Variable Range Information                     |
 +--------------------------------------------------------------------+
 +--------------------------------------------------------------------+
 |      Variable Name                         |    min    |    max    |
 +--------------------------------------------------------------------+
 | Thermal Conductivity                       |  6.07E-01 |  6.07E-01 |
 | Courant Number                             |  7.82E-01 |  2.89E+01 |
 | Density                                    |  9.97E+02 |  9.97E+02 |
 | Static Enthalpy                            | -5.41E+04 |  7.05E+04 |
 | Static Entropy                             | -1.86E+02 |  2.30E+02 |
 | Pressure                                   | -1.30E+04 |  9.98E+04 |
 | Specific Heat Capacity at Constant Pressure|  4.18E+03 |  4.18E+03 |
 | Specific Heat Capacity at Constant Volume  |  4.18E+03 |  4.18E+03 |
 | Turbulence Eddy Dissipation                |  2.21E-03 |  6.53E+01 |
 | Turbulence Eddy Frequency                  |  7.73E+00 |  1.03E+03 |
 | Temperature                                |  2.85E+02 |  3.15E+02 |
 | Turbulence Kinetic Energy                  |  4.53E-04 |  4.78E+00 |
 | Velocity                                   |  2.91E-01 |  8.78E+00 |
 | Dynamic Viscosity                          |  8.90E-04 |  8.90E-04 |
 | Eddy Viscosity                             |  2.17E-03 |  3.61E+02 |
 +--------------------------------------------------------------------+

 +--------------------------------------------------------------------+
 |                 CPU Requirements of Interpolation                  |
 +--------------------------------------------------------------------+

 Interpolation Step              Time    Percentage
                                (secs.   %total)
 ----------------------------------------------------------------------
 Tree Setup                     3.61E-01    9.3 %
 Interpolation                  1.42E+00   36.5 %
 Unmatched Nodes                7.80E-02    2.0 %
 Miscellaneous                  2.04E+00   52.3 %
                                --------
 Total                          3.90E+00

 +--------------------------------------------------------------------+
 |                   Job Information at End of Run                    |
 +--------------------------------------------------------------------+

 Host computer:  ENPC-LAB137 (PID:4700)

 Job finished:   Thu Dec  6 14:31:45 2018

 Total wall clock time: 3.916E+00 seconds
             or: (          0:         0:         0:     3.916 )
                 (       Days:     Hours:   Minutes:   Seconds )

 
 +--------------------------------------------------------------------+
 |                                                                    |
 |                               Solver                               |
 |                                                                    |
 +--------------------------------------------------------------------+
 



 +--------------------------------------------------------------------+
 |                                                                    |
 |                       ANSYS(R) CFX(R) Solver                       |
 |                                                                    |
 | Release 19.1                                                       |
 | Build 19.1 2018-04-17T13:27:50.069000                              |
 | Tue Apr 17 15:02:11 GMTDT 2018                                     |
 |                                                                    |
 |                        Executable Attributes                       |
 |                                                                    |
 |           single-64bit-int32-archfort-optimised-std-lcomp          |
 |                                                                    |
 | (C) 1996-2018 ANSYS, Inc.                                          |
 |                                                                    |
 | All rights reserved. Unauthorized use, distribution or duplication |
 | is prohibited. This product is subject to U.S. laws governing      |
 | export and re-export. For full Legal Notice, see documentation.    |
 +--------------------------------------------------------------------+




 +--------------------------------------------------------------------+
 |                  Job Information at Start of Run                   |
 +--------------------------------------------------------------------+

 Run mode:       serial run

 Host computer:  ENPC-LAB137 (PID:12160)

 Job started:    Thu Dec  6 14:31:48 2018

 +--------------------------------------------------------------------+
 |                        License Information                         |
 +--------------------------------------------------------------------+
 
 License Cap:    ANSYS CFX Solver (Max 128K Nodes)
 License Cap:    ANSYS CFX Solver (Introductory)
 License ID:     VIGO_campus_bath_ac_uk-SYSTEM-1456-875115


 +--------------------------------------------------------------------+
 |        Memory Allocated for Run  (Actual usage may be less)        |
 +--------------------------------------------------------------------+

           | Real       | Integer    | Character | Logical  | Double
 ----------+------------+------------+-----------+----------+----------
 Mwords    |      12.69 |       3.98 |      7.26 |     0.12 |     0.53
 Mbytes    |      48.41 |      15.16 |      6.92 |     0.46 |     4.05
 ----------+------------+------------+-----------+----------+----------


 +--------------------------------------------------------------------+
 |                  Host Memory Information (Mbytes)                  |
 +--------------------------------------------------------------------+
 |          Host           |     System     |   Allocated    |   %    |
 +-------------------------+----------------+----------------+--------+
 | ENPC-LAB137             |     16240.97   |        75.01   |   0.46 |
 +-------------------------+----------------+----------------+--------+


 +--------------------------------------------------------------------+
 |                     ****** Notice ******                           |
 | The Wall Heat Transfer Coefficient written to the results file for |
 | any turbulent phase with heat transfer is based on the turbulent   |
 | wall function coefficient. It is consistent with the Wall Heat Flux|
 | the wall temperature, and the Wall Adjacent Temperature            |
 | (near-wall temperature).  If you would like it to be based on a    |
 | user-specified bulk temperature instead, please set the expert     |
 | parameter "tbulk for htc = <value>".                               |
 +--------------------------------------------------------------------+

 +--------------------------------------------------------------------+
 |                      Topology Simplification                       |
 +--------------------------------------------------------------------+

 +--------------------------------------------------------------------+
 |                       ****** Warning ******                        |
 |                                                                    |
 | Topology simplification is activated with the following            |
 | restrictions:                                                      |
 |                                                                    |
 | - Mesh regions referenced only within User Fortran and NOT         |
 |   in the command file will cause the solver to stop.               |
 | - The solver will stop during any "Edit Run in Progress" step      |
 |   if new 2D regions are referenced.                                |
 +--------------------------------------------------------------------+

 +--------------------------------------------------------------------+
 |                          Mesh Statistics                           |
 +--------------------------------------------------------------------+
 | Domain Name          | Orthog. Angle | Exp. Factor  | Aspect Ratio |
 +----------------------+---------------+--------------+--------------+
 |                      | Minimum [deg] |   Maximum    |    Maximum   |
 +----------------------+---------------+--------------+--------------+
 | Default Domain       |       50.0 ok |         7 ok |         6 OK |
 +----------------------+---------------+--------------+--------------+
 |                      |  %!  %ok  %OK | %!  %ok  %OK | %!  %ok  %OK |
 +----------------------+---------------+--------------+--------------+
 | Default Domain       |   0   <1  100 |  0   <1  100 |  0    0  100 |
 +----------------------+---------------+--------------+--------------+

 Domain Name : Default Domain

     Total Number of Nodes                                =       16300

     Total Number of Elements                             =       87053
         Total Number of Tetrahedrons                     =       87053

     Total Number of Faces                                =        6686

 +--------------------------------------------------------------------+
 |      Initial Conditions Supplied by Fields in the Input Files      |
 +--------------------------------------------------------------------+

 Domain Name : Default Domain
     Courant Number
     Eddy Viscosity
     Pressure
     Specific Heat Capacity at Constant Pressure
     Static Enthalpy
     Static Entropy
     Temperature
     Turbulence Eddy Dissipation
     Turbulence Eddy Frequency
     Turbulence Kinetic Energy
     Velocity

 +--------------------------------------------------------------------+
 |                     Average Scale Information                      |
 +--------------------------------------------------------------------+

 Domain Name : Default Domain
     Global Length                                         = 3.2201E+00
     Minimum Extent                                        = 4.0000E+00
     Maximum Extent                                        = 5.0615E+00
     Density                                               = 9.9700E+02
     Dynamic Viscosity                                     = 8.8990E-04
     Velocity                                              = 6.7985E+00
     Advection Time                                        = 4.7365E-01
     Reynolds Number                                       = 2.4527E+07
     Thermal Conductivity                                  = 6.0690E-01
     Specific Heat Capacity at Constant Pressure           = 4.1817E+03
     Prandtl Number                                        = 6.1316E+00
     Temperature Range                                     = 2.9810E+01

 +--------------------------------------------------------------------+
 |                Checking for Isolated Fluid Regions                 |
 +--------------------------------------------------------------------+
 
 No isolated fluid regions were found.

 +--------------------------------------------------------------------+
 |              The Equations Solved in This Calculation              |
 +--------------------------------------------------------------------+

 Subsystem : Momentum and Mass

   U-Mom
   V-Mom
   W-Mom
   P-Mass

 Subsystem : Heat Transfer

   H-Energy

 Subsystem : TurbKE and Diss.K

   K-TurbKE
   E-Diss.K
                   
 CFD Solver started: Thu Dec  6 14:31:52 2018


 +--------------------------------------------------------------------+
 |                       Convergence History                          |
 +--------------------------------------------------------------------+

 ======================================================================
 |                        Timescale Information                       |
 ----------------------------------------------------------------------
 |       Equation       |         Type          |      Timescale      |
 +----------------------+-----------------------+---------------------+
 | U-Mom                | Auto Timescale        |     1.46045E-01     |
 | V-Mom                | Auto Timescale        |     1.46045E-01     |
 | W-Mom                | Auto Timescale        |     1.46045E-01     |
 +----------------------+-----------------------+---------------------+
 | H-Energy             | Auto Timescale        |     1.46045E-01     |
 +----------------------+-----------------------+---------------------+
 | K-TurbKE             | Auto Timescale        |     1.46045E-01     |
 | E-Diss.K             | Auto Timescale        |     1.46045E-01     |
 +----------------------+-----------------------+---------------------+

 ======================================================================
 OUTER LOOP ITERATION =  453 (    1) CPU SECONDS = 3.281E+02 (4.676E+00)
 ----------------------------------------------------------------------
 |       Equation       | Rate | RMS Res | Max Res |  Linear Solution |
 +----------------------+------+---------+---------+------------------+
 | U-Mom                | 0.00 | 5.4E-03 | 1.3E-01 |       7.8E-02  OK|
 | V-Mom                | 0.00 | 6.8E-03 | 1.4E-01 |       8.1E-02  OK|
 | W-Mom                | 0.00 | 2.7E-03 | 4.8E-02 |       1.1E-01  ok|
 | P-Mass               | 0.00 | 8.1E-03 | 2.5E-01 |  4.7  6.3E-02  OK|
 +----------------------+------+---------+---------+------------------+
 | H-Energy             | 0.00 | 1.5E-02 | 3.5E-01 |  5.4  1.9E-02  OK|
 +----------------------+------+---------+---------+------------------+
 | K-TurbKE             | 0.00 | 1.0E-02 | 6.7E-02 |  5.4  3.5E-02  OK|
 | E-Diss.K             | 0.00 | 8.5E-02 | 7.0E-01 |  8.2  5.6E-03  OK|
 +----------------------+------+---------+---------+------------------+

 ======================================================================
 OUTER LOOP ITERATION =  454 (    2) CPU SECONDS = 3.291E+02 (5.664E+00)
 ----------------------------------------------------------------------
 |       Equation       | Rate | RMS Res | Max Res |  Linear Solution |
 +----------------------+------+---------+---------+------------------+
 | U-Mom                | 1.78 | 9.7E-03 | 1.1E-01 |       2.8E-02  OK|
 | V-Mom                | 1.86 | 1.3E-02 | 1.7E-01 |       2.3E-02  OK|
 | W-Mom                | 1.36 | 3.7E-03 | 8.9E-02 |       3.1E-02  OK|
 | P-Mass               | 0.30 | 2.4E-03 | 6.5E-02 |  8.5  3.2E-02  OK|
 +----------------------+------+---------+---------+------------------+
 | H-Energy             | 0.33 | 4.8E-03 | 1.0E-01 |  5.4  3.8E-02  OK|
 +----------------------+------+---------+---------+------------------+
 | K-TurbKE             | 1.03 | 1.1E-02 | 5.8E-02 |  5.4  2.9E-02  OK|
 | E-Diss.K             | 0.78 | 6.6E-02 | 5.4E-01 |  8.2  2.4E-03  OK|
 +----------------------+------+---------+---------+------------------+

 ======================================================================
 OUTER LOOP ITERATION =  455 (    3) CPU SECONDS = 3.299E+02 (6.505E+00)
 ----------------------------------------------------------------------
 |       Equation       | Rate | RMS Res | Max Res |  Linear Solution |
 +----------------------+------+---------+---------+------------------+
 | U-Mom                | 0.87 | 8.4E-03 | 1.7E-01 |       2.6E-02  OK|
 | V-Mom                | 1.05 | 1.3E-02 | 3.4E-01 |       2.0E-02  OK|
 | W-Mom                | 0.88 | 3.3E-03 | 8.3E-02 |       2.9E-02  OK|
 | P-Mass               | 0.43 | 1.0E-03 | 3.4E-02 |  8.5  4.6E-02  OK|
 +----------------------+------+---------+---------+------------------+
 | H-Energy             | 0.54 | 2.6E-03 | 5.0E-02 |  5.4  3.9E-02  OK|
 +----------------------+------+---------+---------+------------------+
 | K-TurbKE             | 0.65 | 7.0E-03 | 3.6E-02 |  5.4  3.4E-02  OK|
 | E-Diss.K             | 0.61 | 4.1E-02 | 2.8E-01 |  8.2  4.7E-03  OK|
 +----------------------+------+---------+---------+------------------+

 ======================================================================
 |                        Timescale Information                       |
 ----------------------------------------------------------------------
 |       Equation       |         Type          |      Timescale      |
 +----------------------+-----------------------+---------------------+
 | U-Mom                | Auto Timescale        |     1.59262E-01     |
 | V-Mom                | Auto Timescale        |     1.59262E-01     |
 | W-Mom                | Auto Timescale        |     1.59262E-01     |
 +----------------------+-----------------------+---------------------+
 | H-Energy             | Auto Timescale        |     1.59262E-01     |
 +----------------------+-----------------------+---------------------+
 | K-TurbKE             | Auto Timescale        |     1.59262E-01     |
 | E-Diss.K             | Auto Timescale        |     1.59262E-01     |
 +----------------------+-----------------------+---------------------+

 ======================================================================
 OUTER LOOP ITERATION =  456 (    4) CPU SECONDS = 3.308E+02 (7.380E+00)
 ----------------------------------------------------------------------
 |       Equation       | Rate | RMS Res | Max Res |  Linear Solution |
 +----------------------+------+---------+---------+------------------+
 | U-Mom                | 0.59 | 4.9E-03 | 1.1E-01 |       3.0E-02  OK|
 | V-Mom                | 0.65 | 8.7E-03 | 3.0E-01 |       2.6E-02  OK|
 | W-Mom                | 0.67 | 2.2E-03 | 5.7E-02 |       3.6E-02  OK|
 | P-Mass               | 1.13 | 1.2E-03 | 2.5E-02 |  8.5  2.0E-02  OK|
 +----------------------+------+---------+---------+------------------+
 | H-Energy             | 0.73 | 1.9E-03 | 4.0E-02 |  5.4  4.4E-02  OK|
 +----------------------+------+---------+---------+------------------+
 | K-TurbKE             | 0.70 | 4.9E-03 | 2.4E-02 |  5.4  4.0E-02  OK|
 | E-Diss.K             | 0.67 | 2.7E-02 | 1.8E-01 |  8.2  6.6E-03  OK|
 +----------------------+------+---------+---------+------------------+

 ======================================================================
 OUTER LOOP ITERATION =  457 (    5) CPU SECONDS = 3.317E+02 (8.264E+00)
 ----------------------------------------------------------------------
 |       Equation       | Rate | RMS Res | Max Res |  Linear Solution |
 +----------------------+------+---------+---------+------------------+
 | U-Mom                | 0.59 | 2.9E-03 | 7.1E-02 |       8.9E-02  OK|
 | V-Mom                | 0.55 | 4.7E-03 | 1.6E-01 |       8.5E-02  OK|
 | W-Mom                | 0.61 | 1.3E-03 | 3.3E-02 |       1.8E-01  ok|
 | P-Mass               | 0.79 | 9.2E-04 | 2.6E-02 |  4.7  5.0E-02  OK|
 +----------------------+------+---------+---------+------------------+
 | H-Energy             | 0.85 | 1.6E-03 | 2.5E-02 |  5.4  3.9E-02  OK|
 +----------------------+------+---------+---------+------------------+
 | K-TurbKE             | 0.70 | 3.5E-03 | 1.9E-02 |  5.4  4.1E-02  OK|
 | E-Diss.K             | 0.63 | 1.7E-02 | 1.1E-01 |  8.2  7.9E-03  OK|
 +----------------------+------+---------+---------+------------------+

 ======================================================================
 OUTER LOOP ITERATION =  458 (    6) CPU SECONDS = 3.328E+02 (9.319E+00)
 ----------------------------------------------------------------------
 |       Equation       | Rate | RMS Res | Max Res |  Linear Solution |
 +----------------------+------+---------+---------+------------------+
 | U-Mom                | 0.69 | 2.0E-03 | 4.7E-02 |       9.7E-02  OK|
 | V-Mom                | 0.65 | 3.1E-03 | 8.4E-02 |       8.9E-02  OK|
 | W-Mom                | 0.65 | 8.6E-04 | 2.1E-02 |       1.7E-01  ok|
 | P-Mass               | 0.57 | 5.3E-04 | 1.9E-02 |  4.7  5.2E-02  OK|
 +----------------------+------+---------+---------+------------------+
 | H-Energy             | 0.91 | 1.5E-03 | 2.7E-02 |  5.4  3.7E-02  OK|
 +----------------------+------+---------+---------+------------------+
 | K-TurbKE             | 0.70 | 2.4E-03 | 1.9E-02 |  5.4  4.3E-02  OK|
 | E-Diss.K             | 0.63 | 1.1E-02 | 6.8E-02 |  8.2  8.9E-03  OK|
 +----------------------+------+---------+---------+------------------+

 ======================================================================
 OUTER LOOP ITERATION =  459 (    7) CPU SECONDS = 3.338E+02 (1.036E+01)
 ----------------------------------------------------------------------
 |       Equation       | Rate | RMS Res | Max Res |  Linear Solution |
 +----------------------+------+---------+---------+------------------+
 | U-Mom                | 0.67 | 1.3E-03 | 3.0E-02 |       8.7E-02  OK|
 | V-Mom                | 0.66 | 2.0E-03 | 5.6E-02 |       8.4E-02  OK|
 | W-Mom                | 0.69 | 6.0E-04 | 1.3E-02 |       1.6E-01  ok|
 | P-Mass               | 0.55 | 2.9E-04 | 1.2E-02 |  4.7  6.7E-02  OK|
 +----------------------+------+---------+---------+------------------+
 | H-Energy             | 0.90 | 1.3E-03 | 1.9E-02 |  5.4  3.6E-02  OK|
 +----------------------+------+---------+---------+------------------+
 | K-TurbKE             | 0.69 | 1.7E-03 | 1.5E-02 |  5.4  4.5E-02  OK|
 | E-Diss.K             | 0.63 | 6.7E-03 | 4.4E-02 |  8.3  9.8E-03  OK|
 +----------------------+------+---------+---------+------------------+

 ======================================================================
 OUTER LOOP ITERATION =  460 (    8) CPU SECONDS = 3.347E+02 (1.124E+01)
 ----------------------------------------------------------------------
 |       Equation       | Rate | RMS Res | Max Res |  Linear Solution |
 +----------------------+------+---------+---------+------------------+
 | U-Mom                | 0.67 | 9.0E-04 | 1.7E-02 |       8.8E-02  OK|
 | V-Mom                | 0.66 | 1.3E-03 | 5.7E-02 |       8.7E-02  OK|
 | W-Mom                | 0.75 | 4.5E-04 | 1.0E-02 |       1.5E-01  ok|
 | P-Mass               | 0.57 | 1.6E-04 | 6.6E-03 |  4.7  8.5E-02  OK|
 +----------------------+------+---------+---------+------------------+
 | H-Energy             | 0.88 | 1.2E-03 | 1.7E-02 |  5.4  3.4E-02  OK|
 +----------------------+------+---------+---------+------------------+
 | K-TurbKE             | 0.69 | 1.1E-03 | 1.0E-02 |  5.4  4.9E-02  OK|
 | E-Diss.K             | 0.61 | 4.1E-03 | 3.2E-02 |  8.2  1.1E-02  OK|
 +----------------------+------+---------+---------+------------------+

 ======================================================================
 |                        Timescale Information                       |
 ----------------------------------------------------------------------
 |       Equation       |         Type          |      Timescale      |
 +----------------------+-----------------------+---------------------+
 | U-Mom                | Auto Timescale        |     1.63055E-01     |
 | V-Mom                | Auto Timescale        |     1.63055E-01     |
 | W-Mom                | Auto Timescale        |     1.63055E-01     |
 +----------------------+-----------------------+---------------------+
 | H-Energy             | Auto Timescale        |     1.63055E-01     |
 +----------------------+-----------------------+---------------------+
 | K-TurbKE             | Auto Timescale        |     1.63055E-01     |
 | E-Diss.K             | Auto Timescale        |     1.63055E-01     |
 +----------------------+-----------------------+---------------------+

 ======================================================================
 OUTER LOOP ITERATION =  461 (    9) CPU SECONDS = 3.355E+02 (1.207E+01)
 ----------------------------------------------------------------------
 |       Equation       | Rate | RMS Res | Max Res |  Linear Solution |
 +----------------------+------+---------+---------+------------------+
 | U-Mom                | 0.74 | 6.6E-04 | 1.1E-02 |       2.9E-02  OK|
 | V-Mom                | 0.68 | 9.0E-04 | 3.7E-02 |       2.7E-02  OK|
 | W-Mom                | 0.81 | 3.7E-04 | 7.6E-03 |       3.0E-02  OK|
 | P-Mass               | 0.63 | 1.0E-04 | 3.7E-03 |  8.5  3.7E-02  OK|
 +----------------------+------+---------+---------+------------------+
 | H-Energy             | 0.87 | 1.0E-03 | 1.4E-02 |  5.4  3.3E-02  OK|
 +----------------------+------+---------+---------+------------------+
 | K-TurbKE             | 0.73 | 8.3E-04 | 6.5E-03 |  5.4  5.5E-02  OK|
 | E-Diss.K             | 0.61 | 2.5E-03 | 2.6E-02 |  8.3  1.2E-02  OK|
 +----------------------+------+---------+---------+------------------+

 ======================================================================
 OUTER LOOP ITERATION =  462 (   10) CPU SECONDS = 3.363E+02 (1.290E+01)
 ----------------------------------------------------------------------
 |       Equation       | Rate | RMS Res | Max Res |  Linear Solution |
 +----------------------+------+---------+---------+------------------+
 | U-Mom                | 0.79 | 5.2E-04 | 7.7E-03 |       3.0E-02  OK|
 | V-Mom                | 0.74 | 6.7E-04 | 2.1E-02 |       2.7E-02  OK|
 | W-Mom                | 0.85 | 3.1E-04 | 6.5E-03 |       4.0E-02  OK|
 | P-Mass               | 0.71 | 7.3E-05 | 1.9E-03 |  8.5  4.8E-02  OK|
 +----------------------+------+---------+---------+------------------+
 | H-Energy             | 0.87 | 8.8E-04 | 1.4E-02 |  5.4  3.2E-02  OK|
 +----------------------+------+---------+---------+------------------+
 | K-TurbKE             | 0.80 | 6.7E-04 | 5.1E-03 |  5.4  5.6E-02  OK|
 | E-Diss.K             | 0.63 | 1.6E-03 | 1.9E-02 |  8.2  1.5E-02  OK|
 +----------------------+------+---------+---------+------------------+

 ======================================================================
 OUTER LOOP ITERATION =  463 (   11) CPU SECONDS = 3.371E+02 (1.370E+01)
 ----------------------------------------------------------------------
 |       Equation       | Rate | RMS Res | Max Res |  Linear Solution |
 +----------------------+------+---------+---------+------------------+
 | U-Mom                | 0.84 | 4.4E-04 | 5.7E-03 |       2.9E-02  OK|
 | V-Mom                | 0.78 | 5.2E-04 | 1.2E-02 |       2.5E-02  OK|
 | W-Mom                | 0.87 | 2.7E-04 | 4.7E-03 |       4.8E-02  OK|
 | P-Mass               | 0.84 | 6.2E-05 | 9.7E-04 |  8.5  5.1E-02  OK|
 +----------------------+------+---------+---------+------------------+
 | H-Energy             | 0.90 | 7.9E-04 | 1.2E-02 |  5.4  3.2E-02  OK|
 +----------------------+------+---------+---------+------------------+
 | K-TurbKE             | 0.90 | 6.0E-04 | 4.0E-03 |  5.4  5.6E-02  OK|
 | E-Diss.K             | 0.78 | 1.3E-03 | 1.4E-02 |  8.2  1.6E-02  OK|
 +----------------------+------+---------+---------+------------------+

 ======================================================================
 OUTER LOOP ITERATION =  464 (   12) CPU SECONDS = 3.380E+02 (1.452E+01)
 ----------------------------------------------------------------------
 |       Equation       | Rate | RMS Res | Max Res |  Linear Solution |
 +----------------------+------+---------+---------+------------------+
 | U-Mom                | 0.90 | 3.9E-04 | 5.1E-03 |       2.7E-02  OK|
 | V-Mom                | 0.81 | 4.2E-04 | 6.6E-03 |       2.4E-02  OK|
 | W-Mom                | 0.90 | 2.5E-04 | 3.9E-03 |       4.8E-02  OK|
 | P-Mass               | 0.90 | 5.6E-05 | 6.7E-04 |  8.5  4.4E-02  OK|
 +----------------------+------+---------+---------+------------------+
 | H-Energy             | 0.92 | 7.2E-04 | 1.1E-02 |  5.4  3.2E-02  OK|
 +----------------------+------+---------+---------+------------------+
 | K-TurbKE             | 0.96 | 5.8E-04 | 3.9E-03 |  5.4  5.4E-02  OK|
 | E-Diss.K             | 0.95 | 1.2E-03 | 1.3E-02 |  8.2  1.5E-02  OK|
 +----------------------+------+---------+---------+------------------+

 ======================================================================
 OUTER LOOP ITERATION =  465 (   13) CPU SECONDS = 3.388E+02 (1.535E+01)
 ----------------------------------------------------------------------
 |       Equation       | Rate | RMS Res | Max Res |  Linear Solution |
 +----------------------+------+---------+---------+------------------+
 | U-Mom                | 0.92 | 3.6E-04 | 4.8E-03 |       2.6E-02  OK|
 | V-Mom                | 0.85 | 3.6E-04 | 5.1E-03 |       2.4E-02  OK|
 | W-Mom                | 0.91 | 2.2E-04 | 3.4E-03 |       4.4E-02  OK|
 | P-Mass               | 0.91 | 5.1E-05 | 6.6E-04 |  8.5  3.6E-02  OK|
 +----------------------+------+---------+---------+------------------+
 | H-Energy             | 0.92 | 6.7E-04 | 1.1E-02 |  5.4  3.2E-02  OK|
 +----------------------+------+---------+---------+------------------+
 | K-TurbKE             | 0.99 | 5.7E-04 | 3.7E-03 |  5.4  5.1E-02  OK|
 | E-Diss.K             | 1.01 | 1.2E-03 | 1.6E-02 |  8.2  1.5E-02  OK|
 +----------------------+------+---------+---------+------------------+

 ======================================================================
 |                        Timescale Information                       |
 ----------------------------------------------------------------------
 |       Equation       |         Type          |      Timescale      |
 +----------------------+-----------------------+---------------------+
 | U-Mom                | Auto Timescale        |     1.63627E-01     |
 | V-Mom                | Auto Timescale        |     1.63627E-01     |
 | W-Mom                | Auto Timescale        |     1.63627E-01     |
 +----------------------+-----------------------+---------------------+
 | H-Energy             | Auto Timescale        |     1.63627E-01     |
 +----------------------+-----------------------+---------------------+
 | K-TurbKE             | Auto Timescale        |     1.63627E-01     |
 | E-Diss.K             | Auto Timescale        |     1.63627E-01     |
 +----------------------+-----------------------+---------------------+

 ======================================================================
 OUTER LOOP ITERATION =  466 (   14) CPU SECONDS = 3.396E+02 (1.617E+01)
 ----------------------------------------------------------------------
 |       Equation       | Rate | RMS Res | Max Res |  Linear Solution |
 +----------------------+------+---------+---------+------------------+
 | U-Mom                | 0.91 | 3.3E-04 | 4.8E-03 |       2.5E-02  OK|
 | V-Mom                | 0.89 | 3.2E-04 | 4.8E-03 |       2.5E-02  OK|
 | W-Mom                | 0.92 | 2.1E-04 | 2.9E-03 |       3.8E-02  OK|
 | P-Mass               | 0.90 | 4.6E-05 | 6.4E-04 |  8.5  3.3E-02  OK|
 +----------------------+------+---------+---------+------------------+
 | H-Energy             | 0.92 | 6.1E-04 | 1.1E-02 |  5.4  3.3E-02  OK|
 +----------------------+------+---------+---------+------------------+
 | K-TurbKE             | 1.00 | 5.7E-04 | 4.0E-03 |  5.4  5.0E-02  OK|
 | E-Diss.K             | 1.00 | 1.2E-03 | 1.7E-02 |  8.2  1.4E-02  OK|
 +----------------------+------+---------+---------+------------------+

 ======================================================================
 OUTER LOOP ITERATION =  467 (   15) CPU SECONDS = 3.404E+02 (1.700E+01)
 ----------------------------------------------------------------------
 |       Equation       | Rate | RMS Res | Max Res |  Linear Solution |
 +----------------------+------+---------+---------+------------------+
 | U-Mom                | 0.91 | 3.0E-04 | 4.4E-03 |       2.5E-02  OK|
 | V-Mom                | 0.91 | 2.9E-04 | 4.5E-03 |       2.7E-02  OK|
 | W-Mom                | 0.93 | 1.9E-04 | 2.3E-03 |       3.3E-02  OK|
 | P-Mass               | 0.90 | 4.1E-05 | 6.1E-04 |  8.5  3.5E-02  OK|
 +----------------------+------+---------+---------+------------------+
 | H-Energy             | 0.92 | 5.6E-04 | 1.1E-02 |  5.4  3.4E-02  OK|
 +----------------------+------+---------+---------+------------------+
 | K-TurbKE             | 1.00 | 5.7E-04 | 4.0E-03 |  5.4  4.8E-02  OK|
 | E-Diss.K             | 0.97 | 1.2E-03 | 1.6E-02 |  8.2  1.4E-02  OK|
 +----------------------+------+---------+---------+------------------+

 ======================================================================
 OUTER LOOP ITERATION =  468 (   16) CPU SECONDS = 3.412E+02 (1.780E+01)
 ----------------------------------------------------------------------
 |       Equation       | Rate | RMS Res | Max Res |  Linear Solution |
 +----------------------+------+---------+---------+------------------+
 | U-Mom                | 0.92 | 2.7E-04 | 4.0E-03 |       2.5E-02  OK|
 | V-Mom                | 0.92 | 2.7E-04 | 4.0E-03 |       2.8E-02  OK|
 | W-Mom                | 0.93 | 1.8E-04 | 2.2E-03 |       3.0E-02  OK|
 | P-Mass               | 0.90 | 3.7E-05 | 5.7E-04 |  8.5  3.8E-02  OK|
 +----------------------+------+---------+---------+------------------+
 | H-Energy             | 0.92 | 5.2E-04 | 9.9E-03 |  5.4  3.5E-02  OK|
 +----------------------+------+---------+---------+------------------+
 | K-TurbKE             | 0.99 | 5.6E-04 | 3.9E-03 |  5.4  4.8E-02  OK|
 | E-Diss.K             | 0.95 | 1.1E-03 | 1.5E-02 |  8.2  1.5E-02  OK|
 +----------------------+------+---------+---------+------------------+

 ======================================================================
 OUTER LOOP ITERATION =  469 (   17) CPU SECONDS = 3.420E+02 (1.860E+01)
 ----------------------------------------------------------------------
 |       Equation       | Rate | RMS Res | Max Res |  Linear Solution |
 +----------------------+------+---------+---------+------------------+
 | U-Mom                | 0.93 | 2.5E-04 | 4.2E-03 |       2.5E-02  OK|
 | V-Mom                | 0.94 | 2.5E-04 | 3.6E-03 |       2.8E-02  OK|
 | W-Mom                | 0.94 | 1.7E-04 | 2.3E-03 |       3.0E-02  OK|
 | P-Mass               | 0.91 | 3.4E-05 | 5.2E-04 |  8.5  4.0E-02  OK|
 +----------------------+------+---------+---------+------------------+
 | H-Energy             | 0.93 | 4.8E-04 | 8.7E-03 |  5.4  3.5E-02  OK|
 +----------------------+------+---------+---------+------------------+
 | K-TurbKE             | 0.99 | 5.6E-04 | 3.7E-03 |  5.4  4.7E-02  OK|
 | E-Diss.K             | 0.94 | 1.0E-03 | 1.3E-02 |  8.2  1.5E-02  OK|
 +----------------------+------+---------+---------+------------------+

 ======================================================================
 OUTER LOOP ITERATION =  470 (   18) CPU SECONDS = 3.428E+02 (1.940E+01)
 ----------------------------------------------------------------------
 |       Equation       | Rate | RMS Res | Max Res |  Linear Solution |
 +----------------------+------+---------+---------+------------------+
 | U-Mom                | 0.93 | 2.3E-04 | 4.1E-03 |       2.6E-02  OK|
 | V-Mom                | 0.95 | 2.4E-04 | 3.2E-03 |       2.8E-02  OK|
 | W-Mom                | 0.94 | 1.6E-04 | 2.2E-03 |       3.1E-02  OK|
 | P-Mass               | 0.92 | 3.1E-05 | 4.6E-04 |  8.5  4.1E-02  OK|
 +----------------------+------+---------+---------+------------------+
 | H-Energy             | 0.94 | 4.6E-04 | 7.4E-03 |  5.4  3.6E-02  OK|
 +----------------------+------+---------+---------+------------------+
 | K-TurbKE             | 0.99 | 5.5E-04 | 3.7E-03 |  5.4  4.7E-02  OK|
 | E-Diss.K             | 0.94 | 9.7E-04 | 1.1E-02 |  8.2  1.6E-02  OK|
 +----------------------+------+---------+---------+------------------+

 ======================================================================
 |                        Timescale Information                       |
 ----------------------------------------------------------------------
 |       Equation       |         Type          |      Timescale      |
 +----------------------+-----------------------+---------------------+
 | U-Mom                | Auto Timescale        |     1.63455E-01     |
 | V-Mom                | Auto Timescale        |     1.63455E-01     |
 | W-Mom                | Auto Timescale        |     1.63455E-01     |
 +----------------------+-----------------------+---------------------+
 | H-Energy             | Auto Timescale        |     1.63455E-01     |
 +----------------------+-----------------------+---------------------+
 | K-TurbKE             | Auto Timescale        |     1.63455E-01     |
 | E-Diss.K             | Auto Timescale        |     1.63455E-01     |
 +----------------------+-----------------------+---------------------+

 ======================================================================
 OUTER LOOP ITERATION =  471 (   19) CPU SECONDS = 3.436E+02 (2.020E+01)
 ----------------------------------------------------------------------
 |       Equation       | Rate | RMS Res | Max Res |  Linear Solution |
 +----------------------+------+---------+---------+------------------+
 | U-Mom                | 0.93 | 2.2E-04 | 3.7E-03 |       2.8E-02  OK|
 | V-Mom                | 0.96 | 2.3E-04 | 3.0E-03 |       2.7E-02  OK|
 | W-Mom                | 0.95 | 1.5E-04 | 2.1E-03 |       3.2E-02  OK|
 | P-Mass               | 0.93 | 2.9E-05 | 4.0E-04 |  8.5  4.1E-02  OK|
 +----------------------+------+---------+---------+------------------+
 | H-Energy             | 0.95 | 4.3E-04 | 6.2E-03 |  5.4  3.6E-02  OK|
 +----------------------+------+---------+---------+------------------+
 | K-TurbKE             | 0.99 | 5.4E-04 | 3.5E-03 |  5.4  4.6E-02  OK|
 | E-Diss.K             | 0.94 | 9.2E-04 | 9.8E-03 |  8.2  1.6E-02  OK|
 +----------------------+------+---------+---------+------------------+

 ======================================================================
 OUTER LOOP ITERATION =  472 (   20) CPU SECONDS = 3.445E+02 (2.103E+01)
 ----------------------------------------------------------------------
 |       Equation       | Rate | RMS Res | Max Res |  Linear Solution |
 +----------------------+------+---------+---------+------------------+
 | U-Mom                | 0.93 | 2.0E-04 | 3.2E-03 |       3.0E-02  OK|
 | V-Mom                | 0.97 | 2.3E-04 | 3.0E-03 |       2.6E-02  OK|
 | W-Mom                | 0.95 | 1.4E-04 | 1.9E-03 |       3.2E-02  OK|
 | P-Mass               | 0.94 | 2.7E-05 | 3.4E-04 |  8.5  4.2E-02  OK|
 +----------------------+------+---------+---------+------------------+
 | H-Energy             | 0.94 | 4.1E-04 | 6.0E-03 |  5.4  3.5E-02  OK|
 +----------------------+------+---------+---------+------------------+
 | K-TurbKE             | 0.98 | 5.3E-04 | 3.3E-03 |  5.4  4.6E-02  OK|
 | E-Diss.K             | 0.96 | 8.8E-04 | 8.4E-03 |  8.3  1.7E-02  OK|
 +----------------------+------+---------+---------+------------------+

 ======================================================================
 OUTER LOOP ITERATION =  473 (   21) CPU SECONDS = 3.453E+02 (2.183E+01)
 ----------------------------------------------------------------------
 |       Equation       | Rate | RMS Res | Max Res |  Linear Solution |
 +----------------------+------+---------+---------+------------------+
 | U-Mom                | 0.94 | 1.9E-04 | 2.4E-03 |       3.2E-02  OK|
 | V-Mom                | 0.97 | 2.2E-04 | 3.7E-03 |       2.5E-02  OK|
 | W-Mom                | 0.95 | 1.3E-04 | 1.7E-03 |       3.2E-02  OK|
 | P-Mass               | 0.95 | 2.6E-05 | 2.9E-04 |  8.5  4.2E-02  OK|
 +----------------------+------+---------+---------+------------------+
 | H-Energy             | 0.94 | 3.8E-04 | 5.6E-03 |  5.4  3.6E-02  OK|
 +----------------------+------+---------+---------+------------------+
 | K-TurbKE             | 0.98 | 5.2E-04 | 3.4E-03 |  5.4  4.5E-02  OK|
 | E-Diss.K             | 0.97 | 8.5E-04 | 7.5E-03 |  8.2  1.7E-02  OK|
 +----------------------+------+---------+---------+------------------+

 ======================================================================
 OUTER LOOP ITERATION =  474 (   22) CPU SECONDS = 3.461E+02 (2.264E+01)
 ----------------------------------------------------------------------
 |       Equation       | Rate | RMS Res | Max Res |  Linear Solution |
 +----------------------+------+---------+---------+------------------+
 | U-Mom                | 0.95 | 1.8E-04 | 2.0E-03 |       3.5E-02  OK|
 | V-Mom                | 0.97 | 2.1E-04 | 4.1E-03 |       2.4E-02  OK|
 | W-Mom                | 0.95 | 1.3E-04 | 1.6E-03 |       3.2E-02  OK|
 | P-Mass               | 0.96 | 2.5E-05 | 2.4E-04 |  8.5  4.3E-02  OK|
 +----------------------+------+---------+---------+------------------+
 | H-Energy             | 0.95 | 3.6E-04 | 5.6E-03 |  5.4  3.5E-02  OK|
 +----------------------+------+---------+---------+------------------+
 | K-TurbKE             | 0.98 | 5.1E-04 | 3.4E-03 |  5.4  4.5E-02  OK|
 | E-Diss.K             | 0.98 | 8.3E-04 | 7.1E-03 |  8.2  1.7E-02  OK|
 +----------------------+------+---------+---------+------------------+

 ======================================================================
 OUTER LOOP ITERATION =  475 (   23) CPU SECONDS = 3.469E+02 (2.345E+01)
 ----------------------------------------------------------------------
 |       Equation       | Rate | RMS Res | Max Res |  Linear Solution |
 +----------------------+------+---------+---------+------------------+
 | U-Mom                | 0.95 | 1.7E-04 | 1.9E-03 |       3.6E-02  OK|
 | V-Mom                | 0.96 | 2.0E-04 | 4.4E-03 |       2.3E-02  OK|
 | W-Mom                | 0.95 | 1.2E-04 | 1.4E-03 |       3.3E-02  OK|
 | P-Mass               | 0.96 | 2.4E-05 | 2.0E-04 |  8.5  4.3E-02  OK|
 +----------------------+------+---------+---------+------------------+
 | H-Energy             | 0.95 | 3.5E-04 | 4.8E-03 |  5.4  3.5E-02  OK|
 +----------------------+------+---------+---------+------------------+
 | K-TurbKE             | 0.98 | 5.0E-04 | 3.4E-03 |  5.4  4.4E-02  OK|
 | E-Diss.K             | 0.98 | 8.2E-04 | 7.1E-03 |  8.2  1.7E-02  OK|
 +----------------------+------+---------+---------+------------------+

 ======================================================================
 |                        Timescale Information                       |
 ----------------------------------------------------------------------
 |       Equation       |         Type          |      Timescale      |
 +----------------------+-----------------------+---------------------+
 | U-Mom                | Auto Timescale        |     1.63306E-01     |
 | V-Mom                | Auto Timescale        |     1.63306E-01     |
 | W-Mom                | Auto Timescale        |     1.63306E-01     |
 +----------------------+-----------------------+---------------------+
 | H-Energy             | Auto Timescale        |     1.63306E-01     |
 +----------------------+-----------------------+---------------------+
 | K-TurbKE             | Auto Timescale        |     1.63306E-01     |
 | E-Diss.K             | Auto Timescale        |     1.63306E-01     |
 +----------------------+-----------------------+---------------------+

 ======================================================================
 OUTER LOOP ITERATION =  476 (   24) CPU SECONDS = 3.477E+02 (2.423E+01)
 ----------------------------------------------------------------------
 |       Equation       | Rate | RMS Res | Max Res |  Linear Solution |
 +----------------------+------+---------+---------+------------------+
 | U-Mom                | 0.96 | 1.7E-04 | 1.8E-03 |       3.6E-02  OK|
 | V-Mom                | 0.95 | 1.9E-04 | 4.3E-03 |       2.4E-02  OK|
 | W-Mom                | 0.95 | 1.1E-04 | 1.3E-03 |       3.4E-02  OK|
 | P-Mass               | 0.97 | 2.3E-05 | 1.9E-04 |  8.5  4.3E-02  OK|
 +----------------------+------+---------+---------+------------------+
 | H-Energy             | 0.95 | 3.3E-04 | 4.0E-03 |  5.4  3.5E-02  OK|
 +----------------------+------+---------+---------+------------------+
 | K-TurbKE             | 0.98 | 4.9E-04 | 3.5E-03 |  5.4  4.4E-02  OK|
 | E-Diss.K             | 0.99 | 8.1E-04 | 7.3E-03 |  8.2  1.7E-02  OK|
 +----------------------+------+---------+---------+------------------+

 ======================================================================
 OUTER LOOP ITERATION =  477 (   25) CPU SECONDS = 3.485E+02 (2.502E+01)
 ----------------------------------------------------------------------
 |       Equation       | Rate | RMS Res | Max Res |  Linear Solution |
 +----------------------+------+---------+---------+------------------+
 | U-Mom                | 0.97 | 1.6E-04 | 1.8E-03 |       3.5E-02  OK|
 | V-Mom                | 0.95 | 1.8E-04 | 4.1E-03 |       2.5E-02  OK|
 | W-Mom                | 0.95 | 1.1E-04 | 1.1E-03 |       3.5E-02  OK|
 | P-Mass               | 0.98 | 2.3E-05 | 2.1E-04 |  8.5  4.2E-02  OK|
 +----------------------+------+---------+---------+------------------+
 | H-Energy             | 0.96 | 3.2E-04 | 4.0E-03 |  5.4  3.5E-02  OK|
 +----------------------+------+---------+---------+------------------+
 | K-TurbKE             | 0.97 | 4.8E-04 | 3.5E-03 |  5.4  4.4E-02  OK|
 | E-Diss.K             | 0.99 | 8.0E-04 | 7.3E-03 |  8.2  1.7E-02  OK|
 +----------------------+------+---------+---------+------------------+

 ======================================================================
 OUTER LOOP ITERATION =  478 (   26) CPU SECONDS = 3.492E+02 (2.579E+01)
 ----------------------------------------------------------------------
 |       Equation       | Rate | RMS Res | Max Res |  Linear Solution |
 +----------------------+------+---------+---------+------------------+
 | U-Mom                | 0.97 | 1.6E-04 | 2.4E-03 |       3.3E-02  OK|
 | V-Mom                | 0.95 | 1.7E-04 | 3.6E-03 |       2.8E-02  OK|
 | W-Mom                | 0.96 | 1.0E-04 | 1.0E-03 |       3.6E-02  OK|
 | P-Mass               | 0.98 | 2.2E-05 | 2.3E-04 |  8.5  4.2E-02  OK|
 +----------------------+------+---------+---------+------------------+
 | H-Energy             | 0.97 | 3.0E-04 | 3.8E-03 |  5.4  3.5E-02  OK|
 +----------------------+------+---------+---------+------------------+
 | K-TurbKE             | 0.97 | 4.7E-04 | 3.5E-03 |  5.4  4.3E-02  OK|
 | E-Diss.K             | 0.98 | 7.8E-04 | 7.7E-03 |  8.3  1.7E-02  OK|
 +----------------------+------+---------+---------+------------------+

 ======================================================================
 OUTER LOOP ITERATION =  479 (   27) CPU SECONDS = 3.500E+02 (2.657E+01)
 ----------------------------------------------------------------------
 |       Equation       | Rate | RMS Res | Max Res |  Linear Solution |
 +----------------------+------+---------+---------+------------------+
 | U-Mom                | 0.97 | 1.5E-04 | 3.0E-03 |       3.0E-02  OK|
 | V-Mom                | 0.95 | 1.7E-04 | 2.9E-03 |       3.0E-02  OK|
 | W-Mom                | 0.96 | 1.0E-04 | 1.0E-03 |       3.6E-02  OK|
 | P-Mass               | 0.98 | 2.2E-05 | 2.4E-04 |  8.5  4.2E-02  OK|
 +----------------------+------+---------+---------+------------------+
 | H-Energy             | 0.97 | 3.0E-04 | 3.6E-03 |  5.4  3.5E-02  OK|
 +----------------------+------+---------+---------+------------------+
 | K-TurbKE             | 0.97 | 4.5E-04 | 3.4E-03 |  5.4  4.3E-02  OK|
 | E-Diss.K             | 0.98 | 7.7E-04 | 8.2E-03 |  8.2  1.7E-02  OK|
 +----------------------+------+---------+---------+------------------+

 ======================================================================
 OUTER LOOP ITERATION =  480 (   28) CPU SECONDS = 3.508E+02 (2.734E+01)
 ----------------------------------------------------------------------
 |       Equation       | Rate | RMS Res | Max Res |  Linear Solution |
 +----------------------+------+---------+---------+------------------+
 | U-Mom                | 0.97 | 1.5E-04 | 3.4E-03 |       2.6E-02  OK|
 | V-Mom                | 0.95 | 1.6E-04 | 2.2E-03 |       3.3E-02  OK|
 | W-Mom                | 0.97 | 9.7E-05 | 9.6E-04 |       3.7E-02  OK|
 | P-Mass               | 0.98 | 2.1E-05 | 2.5E-04 |  8.5  4.1E-02  OK|
 +----------------------+------+---------+---------+------------------+
 | H-Energy             | 0.98 | 2.9E-04 | 3.7E-03 |  5.4  3.5E-02  OK|
 +----------------------+------+---------+---------+------------------+
 | K-TurbKE             | 0.97 | 4.4E-04 | 3.3E-03 |  5.4  4.2E-02  OK|
 | E-Diss.K             | 0.98 | 7.5E-04 | 8.6E-03 |  8.2  1.7E-02  OK|
 +----------------------+------+---------+---------+------------------+

 ======================================================================
 |                        Timescale Information                       |
 ----------------------------------------------------------------------
 |       Equation       |         Type          |      Timescale      |
 +----------------------+-----------------------+---------------------+
 | U-Mom                | Auto Timescale        |     1.63236E-01     |
 | V-Mom                | Auto Timescale        |     1.63236E-01     |
 | W-Mom                | Auto Timescale        |     1.63236E-01     |
 +----------------------+-----------------------+---------------------+
 | H-Energy             | Auto Timescale        |     1.63236E-01     |
 +----------------------+-----------------------+---------------------+
 | K-TurbKE             | Auto Timescale        |     1.63236E-01     |
 | E-Diss.K             | Auto Timescale        |     1.63236E-01     |
 +----------------------+-----------------------+---------------------+

 ======================================================================
 OUTER LOOP ITERATION =  481 (   29) CPU SECONDS = 3.515E+02 (2.811E+01)
 ----------------------------------------------------------------------
 |       Equation       | Rate | RMS Res | Max Res |  Linear Solution |
 +----------------------+------+---------+---------+------------------+
 | U-Mom                | 0.96 | 1.4E-04 | 3.6E-03 |       2.4E-02  OK|
 | V-Mom                | 0.95 | 1.5E-04 | 1.7E-03 |       3.5E-02  OK|
 | W-Mom                | 0.97 | 9.4E-05 | 9.6E-04 |       3.8E-02  OK|
 | P-Mass               | 0.98 | 2.1E-05 | 2.4E-04 |  8.5  4.0E-02  OK|
 +----------------------+------+---------+---------+------------------+
 | H-Energy             | 0.98 | 2.8E-04 | 3.7E-03 |  5.4  3.6E-02  OK|
 +----------------------+------+---------+---------+------------------+
 | K-TurbKE             | 0.97 | 4.3E-04 | 3.2E-03 |  5.4  4.2E-02  OK|
 | E-Diss.K             | 0.98 | 7.3E-04 | 8.5E-03 |  8.2  1.7E-02  OK|
 +----------------------+------+---------+---------+------------------+

 ======================================================================
 OUTER LOOP ITERATION =  482 (   30) CPU SECONDS = 3.523E+02 (2.890E+01)
 ----------------------------------------------------------------------
 |       Equation       | Rate | RMS Res | Max Res |  Linear Solution |
 +----------------------+------+---------+---------+------------------+
 | U-Mom                | 0.96 | 1.4E-04 | 3.5E-03 |       2.2E-02  OK|
 | V-Mom                | 0.96 | 1.4E-04 | 1.6E-03 |       3.6E-02  OK|
 | W-Mom                | 0.97 | 9.1E-05 | 9.9E-04 |       3.8E-02  OK|
 | P-Mass               | 0.98 | 2.1E-05 | 2.4E-04 |  8.5  3.9E-02  OK|
 +----------------------+------+---------+---------+------------------+
 | H-Energy             | 0.99 | 2.8E-04 | 4.0E-03 |  5.4  3.7E-02  OK|
 +----------------------+------+---------+---------+------------------+
 | K-TurbKE             | 0.97 | 4.1E-04 | 3.2E-03 |  5.4  4.1E-02  OK|
 | E-Diss.K             | 0.97 | 7.1E-04 | 8.0E-03 |  8.2  1.7E-02  OK|
 +----------------------+------+---------+---------+------------------+

 ======================================================================
 OUTER LOOP ITERATION =  483 (   31) CPU SECONDS = 3.532E+02 (2.973E+01)
 ----------------------------------------------------------------------
 |       Equation       | Rate | RMS Res | Max Res |  Linear Solution |
 +----------------------+------+---------+---------+------------------+
 | U-Mom                | 0.96 | 1.3E-04 | 3.3E-03 |       2.3E-02  OK|
 | V-Mom                | 0.96 | 1.4E-04 | 1.5E-03 |       3.5E-02  OK|
 | W-Mom                | 0.97 | 8.9E-05 | 1.0E-03 |       3.8E-02  OK|
 | P-Mass               | 0.98 | 2.0E-05 | 2.4E-04 |  8.5  3.8E-02  OK|
 +----------------------+------+---------+---------+------------------+
 | H-Energy             | 0.99 | 2.8E-04 | 4.1E-03 |  5.4  3.7E-02  OK|
 +----------------------+------+---------+---------+------------------+
 | K-TurbKE             | 0.97 | 4.0E-04 | 3.0E-03 |  5.4  4.0E-02  OK|
 | E-Diss.K             | 0.97 | 6.9E-04 | 7.3E-03 |  8.2  1.7E-02  OK|
 +----------------------+------+---------+---------+------------------+

 ======================================================================
 OUTER LOOP ITERATION =  484 (   32) CPU SECONDS = 3.540E+02 (3.054E+01)
 ----------------------------------------------------------------------
 |       Equation       | Rate | RMS Res | Max Res |  Linear Solution |
 +----------------------+------+---------+---------+------------------+
 | U-Mom                | 0.95 | 1.2E-04 | 3.0E-03 |       2.5E-02  OK|
 | V-Mom                | 0.97 | 1.3E-04 | 1.4E-03 |       3.3E-02  OK|
 | W-Mom                | 0.97 | 8.7E-05 | 9.9E-04 |       3.7E-02  OK|
 | P-Mass               | 0.98 | 2.0E-05 | 2.5E-04 |  8.5  3.7E-02  OK|
 +----------------------+------+---------+---------+------------------+
 | H-Energy             | 0.99 | 2.7E-04 | 4.1E-03 |  5.4  3.8E-02  OK|
 +----------------------+------+---------+---------+------------------+
 | K-TurbKE             | 0.97 | 3.9E-04 | 2.9E-03 |  5.4  3.9E-02  OK|
 | E-Diss.K             | 0.97 | 6.8E-04 | 6.7E-03 |  8.3  1.7E-02  OK|
 +----------------------+------+---------+---------+------------------+

 ======================================================================
 OUTER LOOP ITERATION =  485 (   33) CPU SECONDS = 3.548E+02 (3.137E+01)
 ----------------------------------------------------------------------
 |       Equation       | Rate | RMS Res | Max Res |  Linear Solution |
 +----------------------+------+---------+---------+------------------+
 | U-Mom                | 0.95 | 1.2E-04 | 2.7E-03 |       2.8E-02  OK|
 | V-Mom                | 0.97 | 1.3E-04 | 1.3E-03 |       2.9E-02  OK|
 | W-Mom                | 0.97 | 8.4E-05 | 1.0E-03 |       3.6E-02  OK|
 | P-Mass               | 0.97 | 1.9E-05 | 2.4E-04 |  8.5  3.6E-02  OK|
 +----------------------+------+---------+---------+------------------+
 | H-Energy             | 0.99 | 2.7E-04 | 4.0E-03 |  5.4  4.0E-02  OK|
 +----------------------+------+---------+---------+------------------+
 | K-TurbKE             | 0.97 | 3.8E-04 | 2.8E-03 |  5.4  3.8E-02  OK|
 | E-Diss.K             | 0.97 | 6.6E-04 | 6.1E-03 |  8.3  1.7E-02  OK|
 +----------------------+------+---------+---------+------------------+

 ======================================================================
 |                        Timescale Information                       |
 ----------------------------------------------------------------------
 |       Equation       |         Type          |      Timescale      |
 +----------------------+-----------------------+---------------------+
 | U-Mom                | Auto Timescale        |     1.63251E-01     |
 | V-Mom                | Auto Timescale        |     1.63251E-01     |
 | W-Mom                | Auto Timescale        |     1.63251E-01     |
 +----------------------+-----------------------+---------------------+
 | H-Energy             | Auto Timescale        |     1.63251E-01     |
 +----------------------+-----------------------+---------------------+
 | K-TurbKE             | Auto Timescale        |     1.63251E-01     |
 | E-Diss.K             | Auto Timescale        |     1.63251E-01     |
 +----------------------+-----------------------+---------------------+

 ======================================================================
 OUTER LOOP ITERATION =  486 (   34) CPU SECONDS = 3.556E+02 (3.218E+01)
 ----------------------------------------------------------------------
 |       Equation       | Rate | RMS Res | Max Res |  Linear Solution |
 +----------------------+------+---------+---------+------------------+
 | U-Mom                | 0.95 | 1.1E-04 | 2.4E-03 |       3.1E-02  OK|
 | V-Mom                | 0.97 | 1.3E-04 | 1.3E-03 |       2.5E-02  OK|
 | W-Mom                | 0.97 | 8.2E-05 | 1.0E-03 |       3.5E-02  OK|
 | P-Mass               | 0.97 | 1.9E-05 | 2.5E-04 |  8.5  3.5E-02  OK|
 +----------------------+------+---------+---------+------------------+
 | H-Energy             | 0.99 | 2.7E-04 | 3.9E-03 |  5.4  4.1E-02  OK|
 +----------------------+------+---------+---------+------------------+
 | K-TurbKE             | 0.97 | 3.7E-04 | 2.9E-03 |  5.4  3.7E-02  OK|
 | E-Diss.K             | 0.97 | 6.4E-04 | 6.2E-03 |  8.3  1.7E-02  OK|
 +----------------------+------+---------+---------+------------------+

 ======================================================================
 OUTER LOOP ITERATION =  487 (   35) CPU SECONDS = 3.564E+02 (3.298E+01)
 ----------------------------------------------------------------------
 |       Equation       | Rate | RMS Res | Max Res |  Linear Solution |
 +----------------------+------+---------+---------+------------------+
 | U-Mom                | 0.96 | 1.1E-04 | 2.0E-03 |       3.4E-02  OK|
 | V-Mom                | 0.97 | 1.2E-04 | 1.2E-03 |       2.1E-02  OK|
 | W-Mom                | 0.97 | 8.0E-05 | 9.9E-04 |       3.4E-02  OK|
 | P-Mass               | 0.97 | 1.8E-05 | 2.5E-04 |  8.5  3.5E-02  OK|
 +----------------------+------+---------+---------+------------------+
 | H-Energy             | 0.99 | 2.7E-04 | 3.7E-03 |  5.4  4.2E-02  OK|
 +----------------------+------+---------+---------+------------------+
 | K-TurbKE             | 0.97 | 3.6E-04 | 2.9E-03 |  5.4  3.7E-02  OK|
 | E-Diss.K             | 0.96 | 6.1E-04 | 6.2E-03 |  8.2  1.6E-02  OK|
 +----------------------+------+---------+---------+------------------+

 ======================================================================
 OUTER LOOP ITERATION =  488 (   36) CPU SECONDS = 3.572E+02 (3.380E+01)
 ----------------------------------------------------------------------
 |       Equation       | Rate | RMS Res | Max Res |  Linear Solution |
 +----------------------+------+---------+---------+------------------+
 | U-Mom                | 0.96 | 1.0E-04 | 1.8E-03 |       3.5E-02  OK|
 | V-Mom                | 0.98 | 1.2E-04 | 1.1E-03 |       1.9E-02  OK|
 | W-Mom                | 0.97 | 7.8E-05 | 9.6E-04 |       3.3E-02  OK|
 | P-Mass               | 0.96 | 1.7E-05 | 2.4E-04 |  8.5  3.5E-02  OK|
 +----------------------+------+---------+---------+------------------+
 | H-Energy             | 0.99 | 2.6E-04 | 3.5E-03 |  5.4  4.3E-02  OK|
 +----------------------+------+---------+---------+------------------+
 | K-TurbKE             | 0.97 | 3.5E-04 | 2.9E-03 |  5.4  3.6E-02  OK|
 | E-Diss.K             | 0.96 | 5.9E-04 | 5.9E-03 |  8.2  1.6E-02  OK|
 +----------------------+------+---------+---------+------------------+

 ======================================================================
 OUTER LOOP ITERATION =  489 (   37) CPU SECONDS = 3.581E+02 (3.464E+01)
 ----------------------------------------------------------------------
 |       Equation       | Rate | RMS Res | Max Res |  Linear Solution |
 +----------------------+------+---------+---------+------------------+
 | U-Mom                | 0.96 | 9.9E-05 | 1.5E-03 |       3.5E-02  OK|
 | V-Mom                | 0.98 | 1.2E-04 | 1.1E-03 |       1.8E-02  OK|
 | W-Mom                | 0.97 | 7.6E-05 | 9.6E-04 |       3.2E-02  OK|
 | P-Mass               | 0.96 | 1.7E-05 | 2.1E-04 |  8.5  3.6E-02  OK|
 +----------------------+------+---------+---------+------------------+
 | H-Energy             | 0.99 | 2.6E-04 | 3.3E-03 |  5.4  4.4E-02  OK|
 +----------------------+------+---------+---------+------------------+
 | K-TurbKE             | 0.97 | 3.4E-04 | 2.8E-03 |  5.4  3.5E-02  OK|
 | E-Diss.K             | 0.96 | 5.7E-04 | 5.5E-03 |  8.2  1.6E-02  OK|
 +----------------------+------+---------+---------+------------------+

 ======================================================================
 OUTER LOOP ITERATION =  490 (   38) CPU SECONDS = 3.589E+02 (3.545E+01)
 ----------------------------------------------------------------------
 |       Equation       | Rate | RMS Res | Max Res |  Linear Solution |
 +----------------------+------+---------+---------+------------------+
 | U-Mom                | 0.97 | 9.5E-05 | 1.3E-03 |       3.4E-02  OK|
 | V-Mom                | 0.98 | 1.1E-04 | 1.1E-03 |       1.9E-02  OK|
 | W-Mom                | 0.97 | 7.4E-05 | 9.4E-04 |       3.1E-02  OK|
 | P-Mass               | 0.96 | 1.6E-05 | 1.8E-04 |  8.5  3.6E-02  OK|
 +----------------------+------+---------+---------+------------------+
 | H-Energy             | 0.98 | 2.5E-04 | 3.1E-03 |  5.4  4.5E-02  OK|
 +----------------------+------+---------+---------+------------------+
 | K-TurbKE             | 0.97 | 3.3E-04 | 2.8E-03 |  5.4  3.4E-02  OK|
 | E-Diss.K             | 0.96 | 5.5E-04 | 5.4E-03 |  8.2  1.6E-02  OK|
 +----------------------+------+---------+---------+------------------+

 ======================================================================
 |                        Timescale Information                       |
 ----------------------------------------------------------------------
 |       Equation       |         Type          |      Timescale      |
 +----------------------+-----------------------+---------------------+
 | U-Mom                | Auto Timescale        |     1.63333E-01     |
 | V-Mom                | Auto Timescale        |     1.63333E-01     |
 | W-Mom                | Auto Timescale        |     1.63333E-01     |
 +----------------------+-----------------------+---------------------+
 | H-Energy             | Auto Timescale        |     1.63333E-01     |
 +----------------------+-----------------------+---------------------+
 | K-TurbKE             | Auto Timescale        |     1.63333E-01     |
 | E-Diss.K             | Auto Timescale        |     1.63333E-01     |
 +----------------------+-----------------------+---------------------+

 ======================================================================
 OUTER LOOP ITERATION =  491 (   39) CPU SECONDS = 3.597E+02 (3.625E+01)
 ----------------------------------------------------------------------
 |       Equation       | Rate | RMS Res | Max Res |  Linear Solution |
 +----------------------+------+---------+---------+------------------+
 | U-Mom                | 0.97 | 9.2E-05 | 1.1E-03 |       3.1E-02  OK|
 | V-Mom                | 0.98 | 1.1E-04 | 1.2E-03 |       2.0E-02  OK|
 | W-Mom                | 0.97 | 7.2E-05 | 9.0E-04 |       3.1E-02  OK|
 | P-Mass               | 0.96 | 1.5E-05 | 1.6E-04 |  8.5  3.7E-02  OK|
 +----------------------+------+---------+---------+------------------+
 | H-Energy             | 0.98 | 2.5E-04 | 3.1E-03 |  5.4  4.7E-02  OK|
 +----------------------+------+---------+---------+------------------+
 | K-TurbKE             | 0.97 | 3.2E-04 | 2.7E-03 |  5.4  3.3E-02  OK|
 | E-Diss.K             | 0.96 | 5.3E-04 | 5.3E-03 |  8.2  1.5E-02  OK|
 +----------------------+------+---------+---------+------------------+

 ======================================================================
 OUTER LOOP ITERATION =  492 (   40) CPU SECONDS = 3.605E+02 (3.708E+01)
 ----------------------------------------------------------------------
 |       Equation       | Rate | RMS Res | Max Res |  Linear Solution |
 +----------------------+------+---------+---------+------------------+
 | U-Mom                | 0.97 | 9.0E-05 | 8.8E-04 |       2.9E-02  OK|
 | V-Mom                | 0.98 | 1.1E-04 | 1.3E-03 |       2.1E-02  OK|
 | W-Mom                | 0.97 | 7.0E-05 | 8.5E-04 |       3.0E-02  OK|
 | P-Mass               | 0.96 | 1.5E-05 | 1.5E-04 |  8.5  3.8E-02  OK|
 +----------------------+------+---------+---------+------------------+
 | H-Energy             | 0.98 | 2.4E-04 | 3.0E-03 |  5.4  4.7E-02  OK|
 +----------------------+------+---------+---------+------------------+
 | K-TurbKE             | 0.97 | 3.1E-04 | 2.7E-03 |  5.4  3.2E-02  OK|
 | E-Diss.K             | 0.96 | 5.1E-04 | 5.1E-03 |  8.3  1.5E-02  OK|
 +----------------------+------+---------+---------+------------------+

 ======================================================================
 OUTER LOOP ITERATION =  493 (   41) CPU SECONDS = 3.614E+02 (3.798E+01)
 ----------------------------------------------------------------------
 |       Equation       | Rate | RMS Res | Max Res |  Linear Solution |
 +----------------------+------+---------+---------+------------------+
 | U-Mom                | 0.98 | 8.8E-05 | 8.1E-04 |       2.6E-02  OK|
 | V-Mom                | 0.98 | 1.1E-04 | 1.5E-03 |       2.1E-02  OK|
 | W-Mom                | 0.98 | 6.8E-05 | 7.8E-04 |       3.0E-02  OK|
 | P-Mass               | 0.97 | 1.4E-05 | 1.5E-04 |  8.5  4.0E-02  OK|
 +----------------------+------+---------+---------+------------------+
 | H-Energy             | 0.98 | 2.4E-04 | 2.8E-03 |  5.4  4.8E-02  OK|
 +----------------------+------+---------+---------+------------------+
 | K-TurbKE             | 0.97 | 3.0E-04 | 2.5E-03 |  5.4  3.2E-02  OK|
 | E-Diss.K             | 0.96 | 4.8E-04 | 4.8E-03 |  8.2  1.5E-02  OK|
 +----------------------+------+---------+---------+------------------+

 ======================================================================
 OUTER LOOP ITERATION =  494 (   42) CPU SECONDS = 3.623E+02 (3.883E+01)
 ----------------------------------------------------------------------
 |       Equation       | Rate | RMS Res | Max Res |  Linear Solution |
 +----------------------+------+---------+---------+------------------+
 | U-Mom                | 0.98 | 8.6E-05 | 7.8E-04 |       2.5E-02  OK|
 | V-Mom                | 0.98 | 1.1E-04 | 1.6E-03 |       2.2E-02  OK|
 | W-Mom                | 0.98 | 6.7E-05 | 7.1E-04 |       3.0E-02  OK|
 | P-Mass               | 0.97 | 1.4E-05 | 1.6E-04 |  8.5  4.1E-02  OK|
 +----------------------+------+---------+---------+------------------+
 | H-Energy             | 0.97 | 2.3E-04 | 2.7E-03 |  5.4  4.9E-02  OK|
 +----------------------+------+---------+---------+------------------+
 | K-TurbKE             | 0.97 | 2.9E-04 | 2.6E-03 |  5.4  3.1E-02  OK|
 | E-Diss.K             | 0.96 | 4.7E-04 | 4.6E-03 |  8.2  1.5E-02  OK|
 +----------------------+------+---------+---------+------------------+

 ======================================================================
 OUTER LOOP ITERATION =  495 (   43) CPU SECONDS = 3.631E+02 (3.964E+01)
 ----------------------------------------------------------------------
 |       Equation       | Rate | RMS Res | Max Res |  Linear Solution |
 +----------------------+------+---------+---------+------------------+
 | U-Mom                | 0.99 | 8.5E-05 | 7.4E-04 |       2.3E-02  OK|
 | V-Mom                | 0.98 | 1.1E-04 | 1.7E-03 |       2.3E-02  OK|
 | W-Mom                | 0.98 | 6.5E-05 | 7.1E-04 |       3.0E-02  OK|
 | P-Mass               | 0.97 | 1.3E-05 | 1.6E-04 |  8.5  4.3E-02  OK|
 +----------------------+------+---------+---------+------------------+
[...]
 +----------------------+------+---------+---------+------------------+
 | H-Energy             | 0.97 | 1.1E-04 | 1.7E-03 |  5.4  4.4E-02  OK|
 +----------------------+------+---------+---------+------------------+
 | K-TurbKE             | 0.99 | 1.4E-04 | 1.6E-03 |  5.4  3.4E-02  OK|
 | E-Diss.K             | 0.98 | 2.3E-04 | 3.1E-03 |  8.2  1.2E-02  OK|
 +----------------------+------+---------+---------+------------------+

 ======================================================================
 |                        Timescale Information                       |
 ----------------------------------------------------------------------
 |       Equation       |         Type          |      Timescale      |
 +----------------------+-----------------------+---------------------+
 | U-Mom                | Auto Timescale        |     1.64379E-01     |
 | V-Mom                | Auto Timescale        |     1.64379E-01     |
 | W-Mom                | Auto Timescale        |     1.64379E-01     |
 +----------------------+-----------------------+---------------------+
 | H-Energy             | Auto Timescale        |     1.64379E-01     |
 +----------------------+-----------------------+---------------------+
 | K-TurbKE             | Auto Timescale        |     1.64379E-01     |
 | E-Diss.K             | Auto Timescale        |     1.64379E-01     |
 +----------------------+-----------------------+---------------------+

 ======================================================================
 OUTER LOOP ITERATION =  526 (   74) CPU SECONDS = 3.894E+02 (6.591E+01)
 ----------------------------------------------------------------------
 |       Equation       | Rate | RMS Res | Max Res |  Linear Solution |
 +----------------------+------+---------+---------+------------------+
 | U-Mom                | 0.97 | 4.6E-05 | 6.1E-04 |       3.9E-02  OK|
 | V-Mom                | 1.00 | 5.3E-05 | 1.2E-03 |       2.5E-02  OK|
 | W-Mom                | 0.97 | 3.6E-05 | 6.2E-04 |       3.9E-02  OK|
 | P-Mass               | 0.98 | 8.3E-06 | 1.1E-04 |  8.5  4.3E-02  OK|
 +----------------------+------+---------+---------+------------------+
 | H-Energy             | 0.97 | 1.1E-04 | 1.7E-03 |  5.4  4.4E-02  OK|
 +----------------------+------+---------+---------+------------------+
 | K-TurbKE             | 0.99 | 1.4E-04 | 1.6E-03 |  5.4  3.3E-02  OK|
 | E-Diss.K             | 0.98 | 2.3E-04 | 3.0E-03 |  8.2  1.2E-02  OK|
 +----------------------+------+---------+---------+------------------+

 ======================================================================
 OUTER LOOP ITERATION =  527 (   75) CPU SECONDS = 3.902E+02 (6.673E+01)
 ----------------------------------------------------------------------
 |       Equation       | Rate | RMS Res | Max Res |  Linear Solution |
 +----------------------+------+---------+---------+------------------+
 | U-Mom                | 0.97 | 4.5E-05 | 6.0E-04 |       3.7E-02  OK|
 | V-Mom                | 1.00 | 5.3E-05 | 1.4E-03 |       2.5E-02  OK|
 | W-Mom                | 0.98 | 3.5E-05 | 5.9E-04 |       3.8E-02  OK|
 | P-Mass               | 0.98 | 8.1E-06 | 1.2E-04 |  8.5  4.3E-02  OK|
 +----------------------+------+---------+---------+------------------+
 | H-Energy             | 0.98 | 1.0E-04 | 1.7E-03 |  5.4  4.4E-02  OK|
 +----------------------+------+---------+---------+------------------+
 | K-TurbKE             | 0.98 | 1.3E-04 | 1.6E-03 |  5.4  3.3E-02  OK|
 | E-Diss.K             | 0.98 | 2.2E-04 | 3.2E-03 |  8.2  1.2E-02  OK|
 +----------------------+------+---------+---------+------------------+

 ======================================================================
 OUTER LOOP ITERATION =  528 (   76) CPU SECONDS = 3.910E+02 (6.755E+01)
 ----------------------------------------------------------------------
 |       Equation       | Rate | RMS Res | Max Res |  Linear Solution |
 +----------------------+------+---------+---------+------------------+
 | U-Mom                | 0.98 | 4.4E-05 | 6.0E-04 |       3.6E-02  OK|
 | V-Mom                | 1.00 | 5.3E-05 | 1.5E-03 |       2.5E-02  OK|
 | W-Mom                | 0.98 | 3.4E-05 | 5.6E-04 |       3.7E-02  OK|
 | P-Mass               | 0.97 | 7.9E-06 | 1.2E-04 |  8.5  4.3E-02  OK|
 +----------------------+------+---------+---------+------------------+
 | H-Energy             | 0.98 | 1.0E-04 | 1.7E-03 |  5.4  4.4E-02  OK|
 +----------------------+------+---------+---------+------------------+
 | K-TurbKE             | 0.98 | 1.3E-04 | 1.6E-03 |  5.4  3.3E-02  OK|
 | E-Diss.K             | 0.97 | 2.2E-04 | 3.3E-03 |  8.2  1.2E-02  OK|
 +----------------------+------+---------+---------+------------------+

 ======================================================================
 OUTER LOOP ITERATION =  529 (   77) CPU SECONDS = 3.918E+02 (6.836E+01)
 ----------------------------------------------------------------------
 |       Equation       | Rate | RMS Res | Max Res |  Linear Solution |
 +----------------------+------+---------+---------+------------------+
 | U-Mom                | 0.99 | 4.3E-05 | 5.9E-04 |       3.4E-02  OK|
 | V-Mom                | 0.99 | 5.3E-05 | 1.6E-03 |       2.5E-02  OK|
 | W-Mom                | 0.98 | 3.3E-05 | 5.4E-04 |       3.6E-02  OK|
 | P-Mass               | 0.97 | 7.7E-06 | 1.2E-04 |  8.5  4.3E-02  OK|
 +----------------------+------+---------+---------+------------------+
 | H-Energy             | 0.98 | 9.9E-05 | 1.7E-03 |  5.4  4.4E-02  OK|
 +----------------------+------+---------+---------+------------------+
 | K-TurbKE             | 0.98 | 1.3E-04 | 1.5E-03 |  5.4  3.3E-02  OK|
 | E-Diss.K             | 0.97 | 2.1E-04 | 3.3E-03 |  8.2  1.2E-02  OK|
 +----------------------+------+---------+---------+------------------+
                   
 CFD Solver finished: Thu Dec  6 14:32:57 2018
 CFD Solver wall clock seconds: 6.4496E+01

 ======================================================================
              Termination and Interrupt Condition Summary
 ======================================================================
    
 CFD Solver: All target criteria reached
   (Equation residuals)

 ======================================================================
              Boundary Flow and Total Source Term Summary
 ======================================================================

 +--------------------------------------------------------------------+
 |                               U-Mom                                |
 +--------------------------------------------------------------------+
 Boundary         : Default Domain Default                  3.6359E+04
 Boundary         : in1                                     2.3151E-05
 Boundary         : in2                                    -3.6013E+04
 Boundary         : out                                    -2.6782E+02
                                                           -----------
 Domain Imbalance :                                         7.8336E+01

 +--------------------------------------------------------------------+
 |                               V-Mom                                |
 +--------------------------------------------------------------------+
 Boundary         : Default Domain Default                 -1.2147E+04
 Boundary         : in1                                     5.8483E+04
 Boundary         : in2                                    -4.6377E+04
 Boundary         : out                                     2.9789E+01
                                                           -----------
 Domain Imbalance :                                        -1.0175E+01

 +--------------------------------------------------------------------+
 |                               W-Mom                                |
 +--------------------------------------------------------------------+
 Boundary         : Default Domain Default                 -6.2786E+03
 Boundary         : in1                                    -1.4646E-05
 Boundary         : in2                                     1.4625E-03
 Boundary         : out                                     6.3004E+03
                                                           -----------
 Domain Imbalance :                                         2.1839E+01

 +--------------------------------------------------------------------+
 |                               P-Mass                               |
 +--------------------------------------------------------------------+
 Boundary         : in1                                     1.0001E+03
 Boundary         : in2                                     1.0001E+03
 Boundary         : out                                    -2.0003E+03
                                                           -----------
 Domain Imbalance :                                        -1.2646E-01

 +--------------------------------------------------------------------+
 |                              H-Energy                              |
 +--------------------------------------------------------------------+
 Boundary         : in1                                     7.0469E+07
 Boundary         : in2                                    -5.4995E+07
 Boundary         : out                                    -1.6872E+07
                                                           -----------
 Domain Imbalance :                                        -1.3984E+06


 +--------------------------------------------------------------------+
 |                     Normalised Imbalance Summary                   |
 +--------------------------------------------------------------------+
 |       Equation       |      Maximum Flow     |     Imbalance (%)   |
 +--------------------------------------------------------------------+
 | U-Mom                |       5.8483E+04      |        0.1339       |
 | V-Mom                |       5.8483E+04      |       -0.0174       |
 | W-Mom                |       5.8483E+04      |        0.0373       |
 | P-Mass               |       2.0003E+03      |       -0.0063       |
 +----------------------+-----------------------+---------------------+
 | H-Energy             |       7.0469E+07      |       -1.9844       |
 +----------------------+-----------------------+---------------------+

 ======================================================================
                     Wall Force and Moment Summary
 ======================================================================
                                                                          
 Notes:
 1. Pressure integrals exclude the reference pressure.  To include
    it, set the expert parameter 'include pref in forces = t'.


 +--------------------------------------------------------------------+
 |                      Pressure Force On Walls                       |
 +--------------------------------------------------------------------+
                                    X-Comp.      Y-Comp.      Z-Comp.

 Domain Group: Default Domain

 Default Domain Default          -3.6472E+04   1.2058E+04   6.2153E+03
                                  -----------  -----------  -----------
 Domain Group Totals :           -3.6472E+04   1.2058E+04   6.2153E+03


 +--------------------------------------------------------------------+
 |                       Viscous Force On Walls                       |
 +--------------------------------------------------------------------+
                                    X-Comp.      Y-Comp.      Z-Comp.

 Domain Group: Default Domain

 Default Domain Default           1.1279E+02   8.8208E+01   6.2204E+01
                                  -----------  -----------  -----------
 Domain Group Totals :            1.1279E+02   8.8208E+01   6.2204E+01


 +--------------------------------------------------------------------+
 |                      Pressure Moment On Walls                      |
 +--------------------------------------------------------------------+
                                    X-Comp.      Y-Comp.      Z-Comp.

 Domain Group: Default Domain

 Default Domain Default          -1.3007E+04  -3.5788E+04  -1.0881E+05
                                  -----------  -----------  -----------
 Domain Group Totals :           -1.3007E+04  -3.5788E+04  -1.0881E+05


 +--------------------------------------------------------------------+
 |                       Viscous Moment On Walls                      |
 +--------------------------------------------------------------------+
                                    X-Comp.      Y-Comp.      Z-Comp.

 Domain Group: Default Domain

 Default Domain Default           2.9034E+01   1.1093E+02  -5.4250E+03
                                  -----------  -----------  -----------
 Domain Group Totals :            2.9034E+01   1.1093E+02  -5.4250E+03


 +--------------------------------------------------------------------+
 |                   Locations of Maximum Residuals                   |
 +--------------------------------------------------------------------+
 |       Equation       |      Domain Name      |     Node Number     |
 +--------------------------------------------------------------------+
 | U-Mom                | Default Domain        |          14572      |
 | V-Mom                | Default Domain        |          14350      |
 | W-Mom                | Default Domain        |          13798      |
 | P-Mass               | Default Domain        |          15757      |
 +----------------------+-----------------------+---------------------+
 | H-Energy             | Default Domain        |          13842      |
 +----------------------+-----------------------+---------------------+
 | K-TurbKE             | Default Domain        |           2983      |
 | E-Diss.K             | Default Domain        |          15145      |
 +----------------------+-----------------------+---------------------+

 ======================================================================
 |                     False Transient Information                    |
 +--------------------------------------------------------------------+
 |       Equation       |         Type          | Elapsed Pseudo-Time |
 +--------------------------------------------------------------------+
 | U-Mom                | Auto Timescale        |     1.25244E+01     |
 | V-Mom                | Auto Timescale        |     1.25244E+01     |
 | W-Mom                | Auto Timescale        |     1.25244E+01     |
 +----------------------+-----------------------+---------------------+
 | H-Energy             | Auto Timescale        |     1.25244E+01     |
 +----------------------+-----------------------+---------------------+
 | K-TurbKE             | Auto Timescale        |     1.25244E+01     |
 | E-Diss.K             | Auto Timescale        |     1.25244E+01     |
 +----------------------+-----------------------+---------------------+

 +--------------------------------------------------------------------+
 |                     Average Scale Information                      |
 +--------------------------------------------------------------------+

 Domain Name : Default Domain
     Global Length                                         = 3.2201E+00
     Minimum Extent                                        = 4.0000E+00
     Maximum Extent                                        = 5.0615E+00
     Density                                               = 9.9700E+02
     Dynamic Viscosity                                     = 8.8990E-04
     Velocity                                              = 6.1237E+00
     Advection Time                                        = 5.2584E-01
     Reynolds Number                                       = 2.2092E+07
     Thermal Conductivity                                  = 6.0690E-01
     Specific Heat Capacity at Constant Pressure           = 4.1817E+03
     Prandtl Number                                        = 6.1316E+00
     Temperature Range                                     = 3.0127E+01

 +--------------------------------------------------------------------+
 |                     Variable Range Information                     |
 +--------------------------------------------------------------------+

 Domain Name : Default Domain
 +--------------------------------------------------------------------+
 |      Variable Name                         |    min    |    max    |
 +--------------------------------------------------------------------+
 | Density                                    |  9.97E+02 |  9.97E+02 |
 | Specific Heat Capacity at Constant Pressure|  4.18E+03 |  4.18E+03 |
 | Dynamic Viscosity                          |  8.90E-04 |  8.90E-04 |
 | Thermal Conductivity                       |  6.07E-01 |  6.07E-01 |
 | Static Entropy                             | -1.89E+02 |  2.31E+02 |
 | Velocity u                                 | -7.72E+00 |  7.55E+00 |
 | Velocity v                                 | -7.71E+00 |  7.83E+00 |
 | Velocity w                                 | -4.52E+00 |  1.94E+00 |
 | Pressure                                   | -7.69E+03 |  7.53E+04 |
 | Turbulence Kinetic Energy                  |  2.76E-04 |  2.83E+00 |
 | Turbulence Eddy Dissipation                |  8.61E-04 |  2.50E+01 |
 | Eddy Viscosity                             |  2.70E-03 |  2.77E+02 |
 | Temperature                                |  2.85E+02 |  3.15E+02 |
 | Static Enthalpy                            | -5.52E+04 |  7.08E+04 |
 +--------------------------------------------------------------------+

 +--------------------------------------------------------------------+
 |               CPU Requirements of Numerical Solution               |
 +--------------------------------------------------------------------+

 Subsystem Name                  Discretization       Linear Solution
                                (secs.   %total)     (secs.   %total) 
 ----------------------------------------------------------------------
 Momentum and Mass              2.33E+01  32.2 %     5.03E+00   7.0 %
 Heat Transfer                  7.92E+00  11.0 %     2.28E+00   3.2 %
 TurbKE and Diss.K              1.25E+01  17.3 %     5.41E+00   7.5 %
                                -------- -------     --------  ------
 Subsystem Summary              4.37E+01  60.5 %     1.27E+01  17.6 %

 File Reading                   3.60E-02    0.0 %
 Search Calculations            9.99E-04    0.0 %
 Variable Updates               7.67E+00   10.6 %
 File Writing                   2.80E-01    0.4 %
 Miscellaneous                  7.81E+00   10.8 %
                                --------
 Total                          7.22E+01

 +--------------------------------------------------------------------+
 |                   Job Information at End of Run                    |
 +--------------------------------------------------------------------+

 Host computer:  ENPC-LAB137 (PID:12160)

 Job finished:   Thu Dec  6 14:33:00 2018

 Total wall clock time: 7.223E+01 seconds
             or: (          0:         0:         1:    12.228 )
                 (       Days:     Hours:   Minutes:   Seconds )

End of solution stage.

 +--------------------------------------------------------------------+
 | The results from this run of the ANSYS CFX Solver have been        |
 | written to                                                         |
 | H:/dos/CFD/CW/CFD-Static-Mixer/StaticMixerDX_pending/dp10_CFX_Sol- |
 | ution/Fluid Flow CFX_009.res                                       |
 +--------------------------------------------------------------------+


 +--------------------------------------------------------------------+
 | For CFX runs launched from Workbench, the final locations of       |
 | directories and files generated may differ from those shown.       |
 +--------------------------------------------------------------------+


This run of the ANSYS CFX Solver has finished.
