 This run of the CFX Release 19.1 Solver started at 10:37:47 on 28 Nov
 2018 by user jc2182 on ENPC-LAB113 (intel_xeon64.sse2_winnt) using the
 command:
 
  "C:\Program Files\ANSYS Inc\v191\CFX\bin\perllib\cfx5solve.pl" -batch
    -ccl runInput.ccl -fullname "Fluid Flow CFX_002"
 
 Release 19.1
 
  Point Releases and Patches installed:
  ANSYS, Inc. Products Release 19.1
  SpaceClaim Release 19.1
  Autodyn Release 19.1
  LS-DYNA Release 19.1
  CFD-Post only Release 19.1
  CFX (includes CFD-Post) Release 19.1
  Chemkin Release 19.1
  EnSight Release 19.1
  FENSAP-ICE Release 19.1
  Fluent (includes CFD-Post) Release 19.1
  Forte Release 19.1
  Polyflow (includes CFD-Post) Release 19.1
  TurboGrid Release 19.1
  ICEM CFD Release 19.1
  Customization Files for User Programmable Features Release 19.1
  Mechanical Products Release 19.1
  Icepak (includes CFD-Post) Release 19.1
  Remote Solve Manager Standalone Services Release 19.1
  ACIS Geometry Interface Release 19.1
  Catia, Version 5 Geometry Interface Release 19.1
  NX Geometry Interface Release 19.1
  Parasolid Geometry Interface  Release 19.1
  ANSYS, Inc. License Manager Release 19.1
 
 Setting up CFX Solver run ...
 
 
 +--------------------------------------------------------------------+
 |                                                                    |
 |                    CFX Command Language for Run                    |
 |                                                                    |
 +--------------------------------------------------------------------+
 
 LIBRARY:
   CEL:
     EXPRESSIONS:
       inMassFlow = 1500 [kg s^-1]
     END
   END
   MATERIAL: Water
     Material Description = Water (liquid)
     Material Group = Water Data, Constant Property Liquids
     Option = Pure Substance
     Thermodynamic State = Liquid
     PROPERTIES:
       Option = General Material
       EQUATION OF STATE:
         Density = 997.0 [kg m^-3]
         Molar Mass = 18.02 [kg kmol^-1]
         Option = Value
       END
       SPECIFIC HEAT CAPACITY:
         Option = Value
         Specific Heat Capacity = 4181.7 [J kg^-1 K^-1]
         Specific Heat Type = Constant Pressure
       END
       REFERENCE STATE:
         Option = Specified Point
         Reference Pressure = 1 [atm]
         Reference Specific Enthalpy = 0.0 [J/kg]
         Reference Specific Entropy = 0.0 [J/kg/K]
         Reference Temperature = 25 [C]
       END
       DYNAMIC VISCOSITY:
         Dynamic Viscosity = 8.899E-4 [kg m^-1 s^-1]
         Option = Value
       END
       THERMAL CONDUCTIVITY:
         Option = Value
         Thermal Conductivity = 0.6069 [W m^-1 K^-1]
       END
       ABSORPTION COEFFICIENT:
         Absorption Coefficient = 1.0 [m^-1]
         Option = Value
       END
       SCATTERING COEFFICIENT:
         Option = Value
         Scattering Coefficient = 0.0 [m^-1]
       END
       REFRACTIVE INDEX:
         Option = Value
         Refractive Index = 1.0 [m m^-1]
       END
       THERMAL EXPANSIVITY:
         Option = Value
         Thermal Expansivity = 2.57E-04 [K^-1]
       END
     END
   END
 END
 FLOW: Flow Analysis 1
   SOLUTION UNITS:
     Angle Units = [rad]
     Length Units = [m]
     Mass Units = [kg]
     Solid Angle Units = [sr]
     Temperature Units = [K]
     Time Units = [s]
   END
   ANALYSIS TYPE:
     Option = Steady State
     EXTERNAL SOLVER COUPLING:
       Option = None
     END
   END
   DOMAIN: Default Domain
     Coord Frame = Coord 0
     Domain Type = Fluid
     Location = B17
     BOUNDARY: Default Domain Default
       Boundary Type = WALL
       Location = F12.17,F14.17,F16.17,F19.17,F20.17,F21.17
       BOUNDARY CONDITIONS:
         HEAT TRANSFER:
           Option = Adiabatic
         END
         MASS AND MOMENTUM:
           Option = No Slip Wall
         END
         WALL ROUGHNESS:
           Option = Smooth Wall
         END
       END
     END
     BOUNDARY: in1
       Boundary Type = INLET
       Location = in1
       BOUNDARY CONDITIONS:
         FLOW DIRECTION:
           Option = Normal to Boundary Condition
         END
         FLOW REGIME:
           Option = Subsonic
         END
         HEAT TRANSFER:
           Option = Static Temperature
           Static Temperature = 315 [K]
         END
         MASS AND MOMENTUM:
           Mass Flow Rate = inMassFlow
           Mass Flow Rate Area = As Specified
           Option = Mass Flow Rate
         END
         TURBULENCE:
           Option = Medium Intensity and Eddy Viscosity Ratio
         END
       END
     END
     BOUNDARY: in2
       Boundary Type = INLET
       Location = in2
       BOUNDARY CONDITIONS:
         FLOW DIRECTION:
           Option = Normal to Boundary Condition
         END
         FLOW REGIME:
           Option = Subsonic
         END
         HEAT TRANSFER:
           Option = Static Temperature
           Static Temperature = 285 [K]
         END
         MASS AND MOMENTUM:
           Mass Flow Rate = inMassFlow
           Mass Flow Rate Area = As Specified
           Option = Mass Flow Rate
         END
         TURBULENCE:
           Option = Medium Intensity and Eddy Viscosity Ratio
         END
       END
     END
     BOUNDARY: out
       Boundary Type = OUTLET
       Location = out
       BOUNDARY CONDITIONS:
         FLOW REGIME:
           Option = Subsonic
         END
         MASS AND MOMENTUM:
           Option = Static Pressure
           Relative Pressure = 0 [Pa]
         END
       END
     END
     DOMAIN MODELS:
       BUOYANCY MODEL:
         Option = Non Buoyant
       END
       DOMAIN MOTION:
         Option = Stationary
       END
       MESH DEFORMATION:
         Option = None
       END
       REFERENCE PRESSURE:
         Reference Pressure = 1 [atm]
       END
     END
     FLUID DEFINITION: Fluid 1
       Material = Water
       Option = Material Library
       MORPHOLOGY:
         Option = Continuous Fluid
       END
     END
     FLUID MODELS:
       COMBUSTION MODEL:
         Option = None
       END
       HEAT TRANSFER MODEL:
         Option = Thermal Energy
       END
       THERMAL RADIATION MODEL:
         Option = None
       END
       TURBULENCE MODEL:
         Option = k epsilon
       END
       TURBULENT WALL FUNCTIONS:
         Option = Scalable
       END
     END
   END
   OUTPUT CONTROL:
     RESULTS:
       File Compression Level = Default
       Option = Standard
     END
   END
   SOLVER CONTROL:
     Turbulence Numerics = First Order
     ADVECTION SCHEME:
       Option = Upwind
     END
     CONVERGENCE CONTROL:
       Maximum Number of Iterations = 100
       Minimum Number of Iterations = 5
       Physical Timescale = 2 [s]
       Timescale Control = Physical Timescale
     END
     CONVERGENCE CRITERIA:
       Residual Target = 1.E-4
       Residual Type = RMS
     END
     DYNAMIC MODEL CONTROL:
       Global Dynamic Model Control = On
     END
   END
 END
 COMMAND FILE:
   Version = 19.1
   Results Version = 19.1
 END
 PARAMETERIZATION:
   INPUT FIELD: inMassFlow
     Expression Name = inMassFlow
     Method = Expression
   END
 END
 SIMULATION CONTROL:
   EXECUTION CONTROL:
     EXECUTABLE SELECTION:
       Double Precision = No
       Large Problem = No
     END
     INTERPOLATOR STEP CONTROL:
       Runtime Priority = Standard
       MEMORY CONTROL:
         Memory Allocation Factor = 1.0
       END
     END
     PARALLEL HOST LIBRARY:
       HOST DEFINITION: enpclab113
         Remote Host Name = ENPC-LAB113
         Host Architecture String = winnt-amd64
         Installation Root = C:\Program Files\ANSYS Inc\v%v\CFX
       END
     END
     PARTITIONER STEP CONTROL:
       Multidomain Option = Automatic
       Runtime Priority = Standard
       MEMORY CONTROL:
         Memory Allocation Factor = 1.0
       END
       PARTITION SMOOTHING:
         Maximum Partition Smoothing Sweeps = 100
         Option = Smooth
       END
       PARTITIONING TYPE:
         MeTiS Type = k-way
         Option = MeTiS
         Partition Size Rule = Automatic
       END
     END
     RUN DEFINITION:
       Run Mode = Full
       Solver Input File = Fluid Flow CFX.def
       Solver Results File = \
         H:/dos/CFD/CW/CFD-Static-Mixer/StaticMixerDX_pending/dp0_CFX_Solution\
         /Fluid Flow CFX_002.res
       INITIAL VALUES SPECIFICATION:
         INITIAL VALUES CONTROL:
           Use Mesh From = Solver Input File
           Continue History From = Workbench Initial Values
         END
         INITIAL VALUES: Workbench Initial Values
           Option = Results File
           File Name = Fluid Flow CFX_001.res
         END
       END
     END
     SOLVER STEP CONTROL:
       Runtime Priority = Standard
       MEMORY CONTROL:
         Memory Allocation Factor = 1.0
       END
       PARALLEL ENVIRONMENT:
         Number of Processes = 1
         Start Method = Serial
       END
     END
   END
 END
 
 
 +--------------------------------------------------------------------+
 |                                                                    |
 |                  Interpolation of Initial Values                   |
 |                                                                    |
 +--------------------------------------------------------------------+
 
 


 +--------------------------------------------------------------------+
 |                                                                    |
 |                    ANSYS(R) CFX(R) Interpolator                    |
 |                                                                    |
 | Release 19.1                                                       |
 | Build 19.1 2018-04-17T13:27:50.069000                              |
 | Tue Apr 17 15:02:11 GMTDT 2018                                     |
 |                                                                    |
 |                        Executable Attributes                       |
 |                                                                    |
 |           single-64bit-int32-archfort-optimised-std-lcomp          |
 |                                                                    |
 | (C) 1996-2018 ANSYS, Inc.                                          |
 |                                                                    |
 | All rights reserved. Unauthorized use, distribution or duplication |
 | is prohibited. This product is subject to U.S. laws governing      |
 | export and re-export. For full Legal Notice, see documentation.    |
 +--------------------------------------------------------------------+




 +--------------------------------------------------------------------+
 |                  Job Information at Start of Run                   |
 +--------------------------------------------------------------------+

 Run mode:       serial run

 Host computer:  ENPC-LAB113 (PID:12864)

 Job started:    Wed Nov 28 10:37:48 2018


 +--------------------------------------------------------------------+
 |        Memory Allocated for Run  (Actual usage may be less)        |
 +--------------------------------------------------------------------+

           | Real       | Integer    | Character | Logical  | Double
 ----------+------------+------------+-----------+----------+----------
 Mwords    |       0.72 |       0.69 |      0.20 |     0.01 |     0.05
 Mbytes    |       2.73 |       2.63 |      0.19 |     0.04 |     0.36
 ----------+------------+------------+-----------+----------+----------


 +--------------------------------------------------------------------+
 |                  Host Memory Information (Mbytes)                  |
 +--------------------------------------------------------------------+
 |          Host           |     System     |   Allocated    |   %    |
 +-------------------------+----------------+----------------+--------+
 | ENPC-LAB113             |     16220.97   |         5.95   |   0.04 |
 +-------------------------+----------------+----------------+--------+

 ======================================================================
               Interpolating Onto Domain "Default Domain"
 ======================================================================

 Total Number of Nodes in the Target Domain              =        15627
 Bounding Box Volume of the Target Mesh                  =  9.60000E+01


 Checking all source domains from the source file:
   Target mesh is different from domain "Default Domain".

 Searching for Candidate Source Domains:
   Domain "Default Domain"
     Number of Mapped Nodes                     =        14019 ( 89.7%)
     Bounding Box Overlap Volume                =  9.60000E+01 (100.0%)
   Setting Up Unmapped Nodes:
     Number of Unmapped Nodes                   =         1608 ( 10.3%)

 Start interpolation of variables: 
   Source Domain Name                                    Mapped Nodes
   Default Domain                                        14019 ( 89.7%)

 +--------------------------------------------------------------------+
 |                     Variable Range Information                     |
 +--------------------------------------------------------------------+
 +--------------------------------------------------------------------+
 |      Variable Name                         |    min    |    max    |
 +--------------------------------------------------------------------+
 | Thermal Conductivity                       |  6.07E-01 |  6.07E-01 |
 | Courant Number                             |  2.51E+00 |  1.90E+02 |
 | Density                                    |  9.97E+02 |  9.97E+02 |
 | Static Enthalpy                            | -5.50E+04 |  7.05E+04 |
 | Static Entropy                             | -1.89E+02 |  2.30E+02 |
 | Pressure                                   | -2.25E+03 |  1.30E+04 |
 | Specific Heat Capacity at Constant Pressure|  4.18E+03 |  4.18E+03 |
 | Specific Heat Capacity at Constant Volume  |  4.18E+03 |  4.18E+03 |
 | Turbulence Eddy Dissipation                |  4.25E-04 |  4.22E-01 |
 | Turbulence Eddy Frequency                  |  4.24E+00 |  9.75E+02 |
 | Temperature                                |  2.85E+02 |  3.15E+02 |
 | Turbulence Kinetic Energy                  |  3.02E-04 |  4.01E-02 |
 | Velocity                                   |  9.11E-02 |  4.26E+00 |
 | Dynamic Viscosity                          |  8.90E-04 |  8.90E-04 |
 | Eddy Viscosity                             |  1.01E-03 |  7.90E-01 |
 +--------------------------------------------------------------------+

 +--------------------------------------------------------------------+
 |                 CPU Requirements of Interpolation                  |
 +--------------------------------------------------------------------+

 Interpolation Step              Time    Percentage
                                (secs.   %total)
 ----------------------------------------------------------------------
 Tree Setup                     2.91E-01    7.9 %
 Interpolation                  1.24E+00   33.6 %
 Unmatched Nodes                6.80E-02    1.8 %
 Miscellaneous                  2.09E+00   56.7 %
                                --------
 Total                          3.69E+00

 +--------------------------------------------------------------------+
 |                   Job Information at End of Run                    |
 +--------------------------------------------------------------------+

 Host computer:  ENPC-LAB113 (PID:12864)

 Job finished:   Wed Nov 28 10:37:52 2018

 Total wall clock time: 3.697E+00 seconds
             or: (          0:         0:         0:     3.697 )
                 (       Days:     Hours:   Minutes:   Seconds )

 
 +--------------------------------------------------------------------+
 |                                                                    |
 |                               Solver                               |
 |                                                                    |
 +--------------------------------------------------------------------+
 



 +--------------------------------------------------------------------+
 |                                                                    |
 |                       ANSYS(R) CFX(R) Solver                       |
 |                                                                    |
 | Release 19.1                                                       |
 | Build 19.1 2018-04-17T13:27:50.069000                              |
 | Tue Apr 17 15:02:11 GMTDT 2018                                     |
 |                                                                    |
 |                        Executable Attributes                       |
 |                                                                    |
 |           single-64bit-int32-archfort-optimised-std-lcomp          |
 |                                                                    |
 | (C) 1996-2018 ANSYS, Inc.                                          |
 |                                                                    |
 | All rights reserved. Unauthorized use, distribution or duplication |
 | is prohibited. This product is subject to U.S. laws governing      |
 | export and re-export. For full Legal Notice, see documentation.    |
 +--------------------------------------------------------------------+




 +--------------------------------------------------------------------+
 |                  Job Information at Start of Run                   |
 +--------------------------------------------------------------------+

 Run mode:       serial run

 Host computer:  ENPC-LAB113 (PID:11240)

 Job started:    Wed Nov 28 10:37:55 2018

 +--------------------------------------------------------------------+
 |                        License Information                         |
 +--------------------------------------------------------------------+
 
 License Cap:    ANSYS CFX Solver (Max 128K Nodes)
 License ID:     VIGO_campus_bath_ac_uk-SYSTEM-13776-1820164


 +--------------------------------------------------------------------+
 |        Memory Allocated for Run  (Actual usage may be less)        |
 +--------------------------------------------------------------------+

           | Real       | Integer    | Character | Logical  | Double
 ----------+------------+------------+-----------+----------+----------
 Mwords    |      14.56 |       3.35 |      7.26 |     0.12 |     0.45
 Mbytes    |      55.56 |      12.79 |      6.92 |     0.46 |     3.44
 ----------+------------+------------+-----------+----------+----------


 +--------------------------------------------------------------------+
 |                  Host Memory Information (Mbytes)                  |
 +--------------------------------------------------------------------+
 |          Host           |     System     |   Allocated    |   %    |
 +-------------------------+----------------+----------------+--------+
 | ENPC-LAB113             |     16220.97   |        79.17   |   0.49 |
 +-------------------------+----------------+----------------+--------+


 +--------------------------------------------------------------------+
 |                     ****** Notice ******                           |
 | The Wall Heat Transfer Coefficient written to the results file for |
 | any turbulent phase with heat transfer is based on the turbulent   |
 | wall function coefficient. It is consistent with the Wall Heat Flux|
 | the wall temperature, and the Wall Adjacent Temperature            |
 | (near-wall temperature).  If you would like it to be based on a    |
 | user-specified bulk temperature instead, please set the expert     |
 | parameter "tbulk for htc = <value>".                               |
 +--------------------------------------------------------------------+

 +--------------------------------------------------------------------+
 |                      Topology Simplification                       |
 +--------------------------------------------------------------------+

 +--------------------------------------------------------------------+
 |                       ****** Warning ******                        |
 |                                                                    |
 | Topology simplification is activated with the following            |
 | restrictions:                                                      |
 |                                                                    |
 | - Mesh regions referenced only within User Fortran and NOT         |
 |   in the command file will cause the solver to stop.               |
 | - The solver will stop during any "Edit Run in Progress" step      |
 |   if new 2D regions are referenced.                                |
 +--------------------------------------------------------------------+

 +--------------------------------------------------------------------+
 |                          Mesh Statistics                           |
 +--------------------------------------------------------------------+
 | Domain Name          | Orthog. Angle | Exp. Factor  | Aspect Ratio |
 +----------------------+---------------+--------------+--------------+
 |                      | Minimum [deg] |   Maximum    |    Maximum   |
 +----------------------+---------------+--------------+--------------+
 | Default Domain       |       30.4 ok |        13 ok |        22 OK |
 +----------------------+---------------+--------------+--------------+
 |                      |  %!  %ok  %OK | %!  %ok  %OK | %!  %ok  %OK |
 +----------------------+---------------+--------------+--------------+
 | Default Domain       |   0    2   98 |  0    1   99 |  0    0  100 |
 +----------------------+---------------+--------------+--------------+

 Domain Name : Default Domain

     Total Number of Nodes                                =       15627

     Total Number of Elements                             =       49164
         Total Number of Tetrahedrons                     =       31179
         Total Number of Prisms                           =       17985

     Total Number of Faces                                =        4877

 +--------------------------------------------------------------------+
 |      Initial Conditions Supplied by Fields in the Input Files      |
 +--------------------------------------------------------------------+

 Domain Name : Default Domain
     Courant Number
     Eddy Viscosity
     Pressure
     Specific Heat Capacity at Constant Pressure
     Static Enthalpy
     Static Entropy
     Temperature
     Turbulence Eddy Dissipation
     Turbulence Eddy Frequency
     Turbulence Kinetic Energy
     Velocity

 +--------------------------------------------------------------------+
 |                     Average Scale Information                      |
 +--------------------------------------------------------------------+

 Domain Name : Default Domain
     Global Length                                         = 3.2195E+00
     Minimum Extent                                        = 4.0000E+00
     Maximum Extent                                        = 6.0000E+00
     Density                                               = 9.9700E+02
     Dynamic Viscosity                                     = 8.8990E-04
     Velocity                                              = 1.7495E+00
     Advection Time                                        = 1.8403E+00
     Reynolds Number                                       = 6.3102E+06
     Thermal Conductivity                                  = 6.0690E-01
     Specific Heat Capacity at Constant Pressure           = 4.1817E+03
     Prandtl Number                                        = 6.1316E+00
     Temperature Range                                     = 3.0000E+01

 +--------------------------------------------------------------------+
 |                Checking for Isolated Fluid Regions                 |
 +--------------------------------------------------------------------+
 
 No isolated fluid regions were found.

 +--------------------------------------------------------------------+
 |              The Equations Solved in This Calculation              |
 +--------------------------------------------------------------------+

 Subsystem : Momentum and Mass

   U-Mom
   V-Mom
   W-Mom
   P-Mass

 Subsystem : Heat Transfer

   H-Energy

 Subsystem : TurbKE and Diss.K

   K-TurbKE
   E-Diss.K
                   
 CFD Solver started: Wed Nov 28 10:37:58 2018


 +--------------------------------------------------------------------+
 |                       Convergence History                          |
 +--------------------------------------------------------------------+

 ======================================================================
 |                        Timescale Information                       |
 ----------------------------------------------------------------------
 |       Equation       |         Type          |      Timescale      |
 +----------------------+-----------------------+---------------------+
 | U-Mom                | Physical Timescale    |     2.00000E+00     |
 | V-Mom                | Physical Timescale    |     2.00000E+00     |
 | W-Mom                | Physical Timescale    |     2.00000E+00     |
 +----------------------+-----------------------+---------------------+
 | H-Energy             | Physical Timescale    |     2.00000E+00     |
 +----------------------+-----------------------+---------------------+
 | K-TurbKE             | Physical Timescale    |     2.00000E+00     |
 | E-Diss.K             | Physical Timescale    |     2.00000E+00     |
 +----------------------+-----------------------+---------------------+

 ======================================================================
 OUTER LOOP ITERATION =   31 (    1) CPU SECONDS = 1.046E+01 (3.518E+00)
 ----------------------------------------------------------------------
 |       Equation       | Rate | RMS Res | Max Res |  Linear Solution |
 +----------------------+------+---------+---------+------------------+
 | U-Mom                | 0.00 | 5.1E-03 | 1.1E-01 |       5.9E-02  OK|
 | V-Mom                | 0.00 | 5.8E-03 | 9.8E-02 |       6.0E-02  OK|
 | W-Mom                | 0.00 | 4.2E-03 | 6.3E-02 |       8.3E-02  OK|
 | P-Mass               | 0.00 | 2.3E-03 | 3.8E-02 |  5.3  8.1E-02  OK|
 +----------------------+------+---------+---------+------------------+
 | H-Energy             | 0.00 | 6.9E-03 | 8.3E-02 |  5.5  3.9E-02  OK|
 +----------------------+------+---------+---------+------------------+
 | K-TurbKE             | 0.00 | 2.7E-02 | 3.6E-01 |  5.5  1.1E-02  OK|
 | E-Diss.K             | 0.00 | 5.4E-02 | 9.7E-01 |  7.7  5.3E-04  OK|
 +----------------------+------+---------+---------+------------------+

 ======================================================================
 OUTER LOOP ITERATION =   32 (    2) CPU SECONDS = 1.095E+01 (4.006E+00)
 ----------------------------------------------------------------------
 |       Equation       | Rate | RMS Res | Max Res |  Linear Solution |
 +----------------------+------+---------+---------+------------------+
 | U-Mom                | 0.35 | 1.8E-03 | 3.2E-02 |       6.4E-02  OK|
 | V-Mom                | 0.36 | 2.1E-03 | 3.1E-02 |       4.6E-02  OK|
 | W-Mom                | 0.38 | 1.6E-03 | 1.9E-02 |       2.3E-02  OK|
 | P-Mass               | 0.38 | 8.9E-04 | 2.2E-02 |  9.6  5.6E-02  OK|
 +----------------------+------+---------+---------+------------------+
 | H-Energy             | 0.38 | 2.6E-03 | 2.8E-02 |  5.6  8.2E-02  OK|
 +----------------------+------+---------+---------+------------------+
 | K-TurbKE             | 0.70 | 1.9E-02 | 1.8E-01 |  5.5  2.2E-03  OK|
 | E-Diss.K             | 0.38 | 2.1E-02 | 2.6E-01 |  7.7  3.4E-05  OK|
 +----------------------+------+---------+---------+------------------+

 ======================================================================
 OUTER LOOP ITERATION =   33 (    3) CPU SECONDS = 1.138E+01 (4.439E+00)
 ----------------------------------------------------------------------
 |       Equation       | Rate | RMS Res | Max Res |  Linear Solution |
 +----------------------+------+---------+---------+------------------+
 | U-Mom                | 0.73 | 1.3E-03 | 2.2E-02 |       6.3E-02  OK|
 | V-Mom                | 0.80 | 1.7E-03 | 2.3E-02 |       5.2E-02  OK|
 | W-Mom                | 0.62 | 9.9E-04 | 1.5E-02 |       7.3E-02  OK|
 | P-Mass               | 0.53 | 4.7E-04 | 1.0E-02 |  9.6  9.5E-02  OK|
 +----------------------+------+---------+---------+------------------+
 | H-Energy             | 0.79 | 2.1E-03 | 2.0E-02 |  5.5  7.5E-02  OK|
 +----------------------+------+---------+---------+------------------+
 | K-TurbKE             | 0.23 | 4.5E-03 | 7.1E-02 |  5.5  7.0E-03  OK|
 | E-Diss.K             | 0.24 | 4.9E-03 | 1.4E-01 |  7.7  1.7E-04  OK|
 +----------------------+------+---------+---------+------------------+

 ======================================================================
 OUTER LOOP ITERATION =   34 (    4) CPU SECONDS = 1.182E+01 (4.877E+00)
 ----------------------------------------------------------------------
 |       Equation       | Rate | RMS Res | Max Res |  Linear Solution |
 +----------------------+------+---------+---------+------------------+
 | U-Mom                | 0.75 | 9.8E-04 | 1.3E-02 |       6.0E-02  OK|
 | V-Mom                | 0.77 | 1.3E-03 | 1.7E-02 |       5.6E-02  OK|
 | W-Mom                | 0.64 | 6.4E-04 | 9.3E-03 |       1.1E-01  ok|
 | P-Mass               | 0.63 | 3.0E-04 | 5.1E-03 |  9.6  9.7E-02  OK|
 +----------------------+------+---------+---------+------------------+
 | H-Energy             | 0.82 | 1.7E-03 | 1.7E-02 |  5.5  7.2E-02  OK|
 +----------------------+------+---------+---------+------------------+
 | K-TurbKE             | 0.68 | 3.1E-03 | 4.9E-02 |  5.5  9.5E-03  OK|
 | E-Diss.K             | 0.60 | 2.9E-03 | 8.1E-02 |  7.7  2.5E-04  OK|
 +----------------------+------+---------+---------+------------------+

 ======================================================================
 OUTER LOOP ITERATION =   35 (    5) CPU SECONDS = 1.224E+01 (5.297E+00)
 ----------------------------------------------------------------------
 |       Equation       | Rate | RMS Res | Max Res |  Linear Solution |
 +----------------------+------+---------+---------+------------------+
 | U-Mom                | 0.76 | 7.4E-04 | 9.8E-03 |       6.0E-02  OK|
 | V-Mom                | 0.75 | 9.7E-04 | 1.2E-02 |       5.9E-02  OK|
 | W-Mom                | 0.67 | 4.3E-04 | 7.4E-03 |       1.3E-01  ok|
 | P-Mass               | 0.70 | 2.1E-04 | 3.9E-03 |  9.6  9.6E-02  OK|
 +----------------------+------+---------+---------+------------------+
 | H-Energy             | 0.82 | 1.4E-03 | 1.4E-02 |  5.5  7.8E-02  OK|
 +----------------------+------+---------+---------+------------------+
 | K-TurbKE             | 0.80 | 2.4E-03 | 3.3E-02 |  5.5  1.6E-02  OK|
 | E-Diss.K             | 0.69 | 2.0E-03 | 5.9E-02 |  7.7  3.6E-04  OK|
 +----------------------+------+---------+---------+------------------+

 ======================================================================
 OUTER LOOP ITERATION =   36 (    6) CPU SECONDS = 1.270E+01 (5.753E+00)
 ----------------------------------------------------------------------
 |       Equation       | Rate | RMS Res | Max Res |  Linear Solution |
 +----------------------+------+---------+---------+------------------+
 | U-Mom                | 0.78 | 5.8E-04 | 9.3E-03 |       5.8E-02  OK|
 | V-Mom                | 0.76 | 7.4E-04 | 8.9E-03 |       5.9E-02  OK|
 | W-Mom                | 0.71 | 3.0E-04 | 5.9E-03 |       1.4E-01  ok|
 | P-Mass               | 0.75 | 1.6E-04 | 2.9E-03 |  9.6  9.8E-02  OK|
 +----------------------+------+---------+---------+------------------+
 | H-Energy             | 0.79 | 1.1E-03 | 1.1E-02 |  5.5  8.2E-02  OK|
 +----------------------+------+---------+---------+------------------+
 | K-TurbKE             | 0.97 | 2.4E-03 | 4.7E-02 |  5.5  2.0E-02  OK|
 | E-Diss.K             | 0.75 | 1.5E-03 | 4.4E-02 |  7.7  6.1E-04  OK|
 +----------------------+------+---------+---------+------------------+

 ======================================================================
 OUTER LOOP ITERATION =   37 (    7) CPU SECONDS = 1.312E+01 (6.180E+00)
 ----------------------------------------------------------------------
 |       Equation       | Rate | RMS Res | Max Res |  Linear Solution |
 +----------------------+------+---------+---------+------------------+
 | U-Mom                | 0.79 | 4.6E-04 | 7.2E-03 |       5.7E-02  OK|
 | V-Mom                | 0.78 | 5.8E-04 | 6.8E-03 |       5.9E-02  OK|
 | W-Mom                | 0.76 | 2.3E-04 | 4.6E-03 |       1.4E-01  ok|
 | P-Mass               | 0.78 | 1.2E-04 | 2.0E-03 |  9.6  9.8E-02  OK|
 +----------------------+------+---------+---------+------------------+
 | H-Energy             | 0.77 | 8.4E-04 | 9.1E-03 |  5.5  8.3E-02  OK|
 +----------------------+------+---------+---------+------------------+
 | K-TurbKE             | 1.00 | 2.4E-03 | 6.3E-02 |  5.5  2.1E-02  OK|
 | E-Diss.K             | 0.80 | 1.2E-03 | 3.3E-02 |  7.7  8.6E-04  OK|
 +----------------------+------+---------+---------+------------------+

 ======================================================================
 OUTER LOOP ITERATION =   38 (    8) CPU SECONDS = 1.358E+01 (6.635E+00)
 ----------------------------------------------------------------------
 |       Equation       | Rate | RMS Res | Max Res |  Linear Solution |
 +----------------------+------+---------+---------+------------------+
 | U-Mom                | 0.81 | 3.7E-04 | 5.5E-03 |       5.7E-02  OK|
 | V-Mom                | 0.79 | 4.6E-04 | 5.2E-03 |       5.9E-02  OK|
 | W-Mom                | 0.81 | 1.9E-04 | 3.2E-03 |       1.4E-01  ok|
 | P-Mass               | 0.78 | 9.5E-05 | 1.4E-03 |  9.6  9.4E-02  OK|
 +----------------------+------+---------+---------+------------------+
 | H-Energy             | 0.77 | 6.5E-04 | 7.1E-03 |  5.5  8.5E-02  OK|
 +----------------------+------+---------+---------+------------------+
 | K-TurbKE             | 0.88 | 2.1E-03 | 6.2E-02 |  5.5  2.0E-02  OK|
 | E-Diss.K             | 0.82 | 1.0E-03 | 2.6E-02 |  7.7  9.8E-04  OK|
 +----------------------+------+---------+---------+------------------+

 ======================================================================
 OUTER LOOP ITERATION =   39 (    9) CPU SECONDS = 1.404E+01 (7.093E+00)
 ----------------------------------------------------------------------
 |       Equation       | Rate | RMS Res | Max Res |  Linear Solution |
 +----------------------+------+---------+---------+------------------+
 | U-Mom                | 0.81 | 3.0E-04 | 4.6E-03 |       5.8E-02  OK|
 | V-Mom                | 0.80 | 3.7E-04 | 4.1E-03 |       5.8E-02  OK|
 | W-Mom                | 0.83 | 1.5E-04 | 2.6E-03 |       1.3E-01  ok|
 | P-Mass               | 0.78 | 7.4E-05 | 9.6E-04 |  9.6  9.0E-02  OK|
 +----------------------+------+---------+---------+------------------+
 | H-Energy             | 0.77 | 5.0E-04 | 5.5E-03 |  5.5  8.4E-02  OK|
 +----------------------+------+---------+---------+------------------+
 | K-TurbKE             | 0.75 | 1.6E-03 | 4.8E-02 |  5.5  2.0E-02  OK|
 | E-Diss.K             | 0.83 | 8.4E-04 | 2.1E-02 |  7.7  1.0E-03  OK|
 +----------------------+------+---------+---------+------------------+

 ======================================================================
 OUTER LOOP ITERATION =   40 (   10) CPU SECONDS = 1.447E+01 (7.529E+00)
 ----------------------------------------------------------------------
 |       Equation       | Rate | RMS Res | Max Res |  Linear Solution |
 +----------------------+------+---------+---------+------------------+
 | U-Mom                | 0.81 | 2.4E-04 | 3.8E-03 |       5.9E-02  OK|
 | V-Mom                | 0.81 | 3.0E-04 | 3.6E-03 |       5.7E-02  OK|
 | W-Mom                | 0.84 | 1.3E-04 | 2.0E-03 |       1.3E-01  ok|
 | P-Mass               | 0.78 | 5.8E-05 | 7.1E-04 |  9.6  8.6E-02  OK|
 +----------------------+------+---------+---------+------------------+
 | H-Energy             | 0.77 | 3.9E-04 | 4.6E-03 |  5.5  8.2E-02  OK|
 +----------------------+------+---------+---------+------------------+
 | K-TurbKE             | 0.69 | 1.1E-03 | 2.1E-02 |  5.5  2.5E-02  OK|
 | E-Diss.K             | 0.83 | 7.0E-04 | 1.7E-02 |  7.7  1.1E-03  OK|
 +----------------------+------+---------+---------+------------------+

 ======================================================================
 OUTER LOOP ITERATION =   41 (   11) CPU SECONDS = 1.491E+01 (7.968E+00)
 ----------------------------------------------------------------------
 |       Equation       | Rate | RMS Res | Max Res |  Linear Solution |
 +----------------------+------+---------+---------+------------------+
 | U-Mom                | 0.81 | 2.0E-04 | 2.0E-03 |       5.9E-02  OK|
 | V-Mom                | 0.82 | 2.4E-04 | 5.8E-03 |       5.5E-02  OK|
 | W-Mom                | 0.85 | 1.1E-04 | 1.5E-03 |       1.2E-01  ok|
 | P-Mass               | 0.79 | 4.6E-05 | 5.5E-04 |  9.6  8.1E-02  OK|
 +----------------------+------+---------+---------+------------------+
 | H-Energy             | 0.78 | 3.0E-04 | 4.4E-03 |  5.5  7.4E-02  OK|
 +----------------------+------+---------+---------+------------------+
 | K-TurbKE             | 0.85 | 9.3E-04 | 1.8E-02 |  5.5  3.2E-02  OK|
 | E-Diss.K             | 0.85 | 5.9E-04 | 1.4E-02 |  7.7  1.5E-03  OK|
 +----------------------+------+---------+---------+------------------+

 ======================================================================
 OUTER LOOP ITERATION =   42 (   12) CPU SECONDS = 1.535E+01 (8.402E+00)
 ----------------------------------------------------------------------
 |       Equation       | Rate | RMS Res | Max Res |  Linear Solution |
 +----------------------+------+---------+---------+------------------+
 | U-Mom                | 0.82 | 1.6E-04 | 1.8E-03 |       5.7E-02  OK|
 | V-Mom                | 0.81 | 2.0E-04 | 6.5E-03 |       5.3E-02  OK|
 | W-Mom                | 0.85 | 9.3E-05 | 1.4E-03 |       1.2E-01  ok|
 | P-Mass               | 0.79 | 3.6E-05 | 4.4E-04 |  9.6  7.7E-02  OK|
 +----------------------+------+---------+---------+------------------+
 | H-Energy             | 0.80 | 2.4E-04 | 3.7E-03 |  5.5  6.7E-02  OK|
 +----------------------+------+---------+---------+------------------+
 | K-TurbKE             | 1.07 | 9.9E-04 | 2.9E-02 |  5.5  3.5E-02  OK|
 | E-Diss.K             | 0.90 | 5.3E-04 | 1.3E-02 |  7.7  2.0E-03  OK|
 +----------------------+------+---------+---------+------------------+

 ======================================================================
 OUTER LOOP ITERATION =   43 (   13) CPU SECONDS = 1.578E+01 (8.833E+00)
 ----------------------------------------------------------------------
 |       Equation       | Rate | RMS Res | Max Res |  Linear Solution |
 +----------------------+------+---------+---------+------------------+
 | U-Mom                | 0.85 | 1.4E-04 | 2.5E-03 |       5.5E-02  OK|
 | V-Mom                | 0.80 | 1.6E-04 | 5.7E-03 |       5.2E-02  OK|
 | W-Mom                | 0.86 | 8.0E-05 | 1.2E-03 |       1.1E-01  ok|
 | P-Mass               | 0.79 | 2.9E-05 | 3.5E-04 |  9.6  7.3E-02  OK|
 +----------------------+------+---------+---------+------------------+
 | H-Energy             | 0.82 | 2.0E-04 | 3.1E-03 |  5.5  6.5E-02  OK|
 +----------------------+------+---------+---------+------------------+
 | K-TurbKE             | 1.03 | 1.0E-03 | 3.3E-02 |  5.5  3.5E-02  OK|
 | E-Diss.K             | 0.95 | 5.0E-04 | 1.2E-02 |  7.7  2.2E-03  OK|
 +----------------------+------+---------+---------+------------------+

 ======================================================================
 OUTER LOOP ITERATION =   44 (   14) CPU SECONDS = 1.620E+01 (9.261E+00)
 ----------------------------------------------------------------------
 |       Equation       | Rate | RMS Res | Max Res |  Linear Solution |
 +----------------------+------+---------+---------+------------------+
 | U-Mom                | 0.87 | 1.2E-04 | 3.9E-03 |       5.3E-02  OK|
 | V-Mom                | 0.80 | 1.3E-04 | 3.9E-03 |       5.1E-02  OK|
 | W-Mom                | 0.86 | 6.9E-05 | 1.2E-03 |       1.1E-01  ok|
 | P-Mass               | 0.79 | 2.3E-05 | 2.7E-04 |  9.6  7.0E-02  OK|
 +----------------------+------+---------+---------+------------------+
 | H-Energy             | 0.83 | 1.7E-04 | 2.6E-03 |  5.5  6.8E-02  OK|
 +----------------------+------+---------+---------+------------------+
 | K-TurbKE             | 0.96 | 9.8E-04 | 2.8E-02 |  5.6  3.2E-02  OK|
 | E-Diss.K             | 0.97 | 4.9E-04 | 1.2E-02 |  7.7  2.3E-03  OK|
 +----------------------+------+---------+---------+------------------+

 ======================================================================
 OUTER LOOP ITERATION =   45 (   15) CPU SECONDS = 1.665E+01 (9.704E+00)
 ----------------------------------------------------------------------
 |       Equation       | Rate | RMS Res | Max Res |  Linear Solution |
 +----------------------+------+---------+---------+------------------+
 | U-Mom                | 0.83 | 1.0E-04 | 4.3E-03 |       5.3E-02  OK|
 | V-Mom                | 0.83 | 1.0E-04 | 2.6E-03 |       4.9E-02  OK|
 | W-Mom                | 0.85 | 5.9E-05 | 1.1E-03 |       1.0E-01  OK|
 | P-Mass               | 0.79 | 1.8E-05 | 2.1E-04 |  9.6  6.8E-02  OK|
 +----------------------+------+---------+---------+------------------+
 | H-Energy             | 0.82 | 1.4E-04 | 2.0E-03 |  5.5  7.5E-02  OK|
 +----------------------+------+---------+---------+------------------+
 | K-TurbKE             | 0.90 | 8.9E-04 | 2.1E-02 |  5.6  3.0E-02  OK|
 | E-Diss.K             | 0.96 | 4.7E-04 | 1.1E-02 |  7.7  2.0E-03  OK|
 +----------------------+------+---------+---------+------------------+

 ======================================================================
 OUTER LOOP ITERATION =   46 (   16) CPU SECONDS = 1.708E+01 (1.014E+01)
 ----------------------------------------------------------------------
 |       Equation       | Rate | RMS Res | Max Res |  Linear Solution |
 +----------------------+------+---------+---------+------------------+
 | U-Mom                | 0.78 | 7.8E-05 | 3.9E-03 |       5.6E-02  OK|
 | V-Mom                | 0.90 | 9.4E-05 | 3.7E-03 |       4.6E-02  OK|
 | W-Mom                | 0.84 | 4.9E-05 | 1.0E-03 |       9.4E-02  OK|
 | P-Mass               | 0.79 | 1.4E-05 | 1.6E-04 |  9.6  6.8E-02  OK|
 +----------------------+------+---------+---------+------------------+
 | H-Energy             | 0.81 | 1.1E-04 | 1.6E-03 |  5.6  8.2E-02  OK|
 +----------------------+------+---------+---------+------------------+
 | K-TurbKE             | 0.86 | 7.6E-04 | 1.4E-02 |  5.5  2.9E-02  OK|
 | E-Diss.K             | 0.91 | 4.3E-04 | 1.0E-02 |  7.7  1.9E-03  OK|
 +----------------------+------+---------+---------+------------------+

 ======================================================================
 OUTER LOOP ITERATION =   47 (   17) CPU SECONDS = 1.752E+01 (1.057E+01)
 ----------------------------------------------------------------------
 |       Equation       | Rate | RMS Res | Max Res |  Linear Solution |
 +----------------------+------+---------+---------+------------------+
 | U-Mom                | 0.78 | 6.1E-05 | 2.7E-03 |       5.9E-02  OK|
 | V-Mom                | 0.93 | 8.7E-05 | 3.7E-03 |       4.3E-02  OK|
 | W-Mom                | 0.83 | 4.0E-05 | 9.0E-04 |       8.7E-02  OK|
 | P-Mass               | 0.80 | 1.1E-05 | 1.3E-04 |  9.6  6.9E-02  OK|
 +----------------------+------+---------+---------+------------------+
 | H-Energy             | 0.79 | 8.8E-05 | 1.2E-03 |  5.5  8.7E-02  OK|
 +----------------------+------+---------+---------+------------------+
 | K-TurbKE             | 0.80 | 6.1E-04 | 9.6E-03 |  5.5  2.8E-02  OK|
 | E-Diss.K             | 0.84 | 3.6E-04 | 8.9E-03 |  7.7  1.9E-03  OK|
 +----------------------+------+---------+---------+------------------+
                   
 CFD Solver finished: Wed Nov 28 10:38:06 2018
 CFD Solver wall clock seconds: 7.4970E+00

 ======================================================================
              Termination and Interrupt Condition Summary
 ======================================================================
    
 CFD Solver: All target criteria reached
   (Equation residuals)

 ======================================================================
              Boundary Flow and Total Source Term Summary
 ======================================================================

 +--------------------------------------------------------------------+
 |                               U-Mom                                |
 +--------------------------------------------------------------------+
 Boundary         : Default Domain Default                 -6.4531E+00
 Boundary         : in1                                     1.6485E-05
 Boundary         : in2                                    -1.6110E-05
 Boundary         : out                                     5.9393E+00
                                                           -----------
 Domain Imbalance :                                        -5.1376E-01

 +--------------------------------------------------------------------+
 |                               V-Mom                                |
 +--------------------------------------------------------------------+
 Boundary         : Default Domain Default                 -9.7439E+00
 Boundary         : in1                                     1.4037E+04
 Boundary         : in2                                    -1.4037E+04
 Boundary         : out                                     7.4202E+00
                                                           -----------
 Domain Imbalance :                                        -1.9431E+00

 +--------------------------------------------------------------------+
 |                               W-Mom                                |
 +--------------------------------------------------------------------+
 Boundary         : Default Domain Default                 -1.1705E+04
 Boundary         : in1                                    -3.9741E-06
 Boundary         : in2                                     3.8905E-06
 Boundary         : out                                     1.1709E+04
                                                           -----------
 Domain Imbalance :                                         4.2979E+00

 +--------------------------------------------------------------------+
 |                               P-Mass                               |
 +--------------------------------------------------------------------+
 Boundary         : in1                                     1.5000E+03
 Boundary         : in2                                     1.5000E+03
 Boundary         : out                                    -2.9999E+03
                                                           -----------
 Domain Imbalance :                                         1.0156E-01

 +--------------------------------------------------------------------+
 |                              H-Energy                              |
 +--------------------------------------------------------------------+
 Boundary         : in1                                     1.0569E+08
 Boundary         : in2                                    -8.2484E+07
 Boundary         : out                                    -2.3224E+07
                                                           -----------
 Domain Imbalance :                                        -1.5694E+04


 +--------------------------------------------------------------------+
 |                     Normalised Imbalance Summary                   |
 +--------------------------------------------------------------------+
 |       Equation       |      Maximum Flow     |     Imbalance (%)   |
 +--------------------------------------------------------------------+
 | U-Mom                |       1.4037E+04      |       -0.0037       |
 | V-Mom                |       1.4037E+04      |       -0.0138       |
 | W-Mom                |       1.4037E+04      |        0.0306       |
 | P-Mass               |       2.9999E+03      |        0.0034       |
 +----------------------+-----------------------+---------------------+
 | H-Energy             |       1.0569E+08      |       -0.0148       |
 +----------------------+-----------------------+---------------------+

 ======================================================================
                     Wall Force and Moment Summary
 ======================================================================
                                                                          
 Notes:
 1. Pressure integrals exclude the reference pressure.  To include
    it, set the expert parameter 'include pref in forces = t'.


 +--------------------------------------------------------------------+
 |                      Pressure Force On Walls                       |
 +--------------------------------------------------------------------+
                                    X-Comp.      Y-Comp.      Z-Comp.

 Domain Group: Default Domain

 Default Domain Default           6.4008E+00   9.2068E+00   1.1783E+04
                                  -----------  -----------  -----------
 Domain Group Totals :            6.4008E+00   9.2068E+00   1.1783E+04


 +--------------------------------------------------------------------+
 |                       Viscous Force On Walls                       |
 +--------------------------------------------------------------------+
                                    X-Comp.      Y-Comp.      Z-Comp.

 Domain Group: Default Domain

 Default Domain Default           6.1507E-02   5.3725E-01  -7.8405E+01
                                  -----------  -----------  -----------
 Domain Group Totals :            6.1507E-02   5.3725E-01  -7.8405E+01


 +--------------------------------------------------------------------+
 |                      Pressure Moment On Walls                      |
 +--------------------------------------------------------------------+
                                    X-Comp.      Y-Comp.      Z-Comp.

 Domain Group: Default Domain

 Default Domain Default          -5.8639E+01  -1.7790E+01  -2.0620E+04
                                  -----------  -----------  -----------
 Domain Group Totals :           -5.8639E+01  -1.7790E+01  -2.0620E+04


 +--------------------------------------------------------------------+
 |                       Viscous Moment On Walls                      |
 +--------------------------------------------------------------------+
                                    X-Comp.      Y-Comp.      Z-Comp.

 Domain Group: Default Domain

 Default Domain Default           3.7357E-01   6.0398E-01  -3.1683E+02
                                  -----------  -----------  -----------
 Domain Group Totals :            3.7357E-01   6.0398E-01  -3.1683E+02


 +--------------------------------------------------------------------+
 |                   Locations of Maximum Residuals                   |
 +--------------------------------------------------------------------+
 |       Equation       |      Domain Name      |     Node Number     |
 +--------------------------------------------------------------------+
 | U-Mom                | Default Domain        |          12931      |
 | V-Mom                | Default Domain        |            993      |
 | W-Mom                | Default Domain        |          14177      |
 | P-Mass               | Default Domain        |           1533      |
 +----------------------+-----------------------+---------------------+
 | H-Energy             | Default Domain        |           8791      |
 +----------------------+-----------------------+---------------------+
 | K-TurbKE             | Default Domain        |           5329      |
 | E-Diss.K             | Default Domain        |          14698      |
 +----------------------+-----------------------+---------------------+

 ======================================================================
 |                     False Transient Information                    |
 +--------------------------------------------------------------------+
 |       Equation       |         Type          | Elapsed Pseudo-Time |
 +--------------------------------------------------------------------+
 | U-Mom                | Physical Timescale    |     3.40000E+01     |
 | V-Mom                | Physical Timescale    |     3.40000E+01     |
 | W-Mom                | Physical Timescale    |     3.40000E+01     |
 +----------------------+-----------------------+---------------------+
 | H-Energy             | Physical Timescale    |     3.40000E+01     |
 +----------------------+-----------------------+---------------------+
 | K-TurbKE             | Physical Timescale    |     3.40000E+01     |
 | E-Diss.K             | Physical Timescale    |     3.40000E+01     |
 +----------------------+-----------------------+---------------------+

 +--------------------------------------------------------------------+
 |                     Average Scale Information                      |
 +--------------------------------------------------------------------+

 Domain Name : Default Domain
     Global Length                                         = 3.2195E+00
     Minimum Extent                                        = 4.0000E+00
     Maximum Extent                                        = 6.0000E+00
     Density                                               = 9.9700E+02
     Dynamic Viscosity                                     = 8.8990E-04
     Velocity                                              = 1.8803E+00
     Advection Time                                        = 1.7122E+00
     Reynolds Number                                       = 6.7822E+06
     Thermal Conductivity                                  = 6.0690E-01
     Specific Heat Capacity at Constant Pressure           = 4.1817E+03
     Prandtl Number                                        = 6.1316E+00
     Temperature Range                                     = 3.0011E+01

 +--------------------------------------------------------------------+
 |                     Variable Range Information                     |
 +--------------------------------------------------------------------+

 Domain Name : Default Domain
 +--------------------------------------------------------------------+
 |      Variable Name                         |    min    |    max    |
 +--------------------------------------------------------------------+
 | Density                                    |  9.97E+02 |  9.97E+02 |
 | Specific Heat Capacity at Constant Pressure|  4.18E+03 |  4.18E+03 |
 | Dynamic Viscosity                          |  8.90E-04 |  8.90E-04 |
 | Thermal Conductivity                       |  6.07E-01 |  6.07E-01 |
 | Static Entropy                             | -1.89E+02 |  2.30E+02 |
 | Velocity u                                 | -3.22E+00 |  3.10E+00 |
 | Velocity v                                 | -3.01E+00 |  3.09E+00 |
 | Velocity w                                 | -4.31E+00 |  8.62E-01 |
 | Pressure                                   | -2.12E+03 |  1.50E+04 |
 | Turbulence Kinetic Energy                  |  7.59E-06 |  9.96E-02 |
 | Turbulence Eddy Dissipation                |  2.36E-05 |  6.81E+00 |
 | Eddy Viscosity                             |  1.92E-04 |  1.86E+00 |
 | Temperature                                |  2.85E+02 |  3.15E+02 |
 | Static Enthalpy                            | -5.50E+04 |  7.05E+04 |
 +--------------------------------------------------------------------+

 +--------------------------------------------------------------------+
 |               CPU Requirements of Numerical Solution               |
 +--------------------------------------------------------------------+

 Subsystem Name                  Discretization       Linear Solution
                                (secs.   %total)     (secs.   %total) 
 ----------------------------------------------------------------------
 Momentum and Mass              2.96E+00  21.7 %     8.45E-01   6.2 %
 Heat Transfer                  9.17E-01   6.7 %     3.67E-01   2.7 %
 TurbKE and Diss.K              1.21E+00   8.9 %     8.11E-01   5.9 %
                                -------- -------     --------  ------
 Subsystem Summary              5.09E+00  37.3 %     2.02E+00  14.8 %

 File Reading                   2.20E-02    0.2 %
 Variable Updates               2.76E-01    2.0 %
 File Writing                   1.91E-01    1.4 %
 Miscellaneous                  6.05E+00   44.3 %
                                --------
 Total                          1.37E+01

 +--------------------------------------------------------------------+
 |                   Job Information at End of Run                    |
 +--------------------------------------------------------------------+

 Host computer:  ENPC-LAB113 (PID:11240)

 Job finished:   Wed Nov 28 10:38:09 2018

 Total wall clock time: 1.365E+01 seconds
             or: (          0:         0:         0:    13.652 )
                 (       Days:     Hours:   Minutes:   Seconds )

End of solution stage.

 +--------------------------------------------------------------------+
 | The results from this run of the ANSYS CFX Solver have been        |
 | written to                                                         |
 | H:/dos/CFD/CW/CFD-Static-Mixer/StaticMixerDX_pending/dp0_CFX_Solu- |
 | tion/Fluid Flow CFX_002.res                                        |
 +--------------------------------------------------------------------+


 +--------------------------------------------------------------------+
 | For CFX runs launched from Workbench, the final locations of       |
 | directories and files generated may differ from those shown.       |
 +--------------------------------------------------------------------+


This run of the ANSYS CFX Solver has finished.
