 This run of the CFX Release 19.1 Solver started at 15:38:00 on 05 Dec
 2018 by user jc2182 on ENPC-LAB137 (intel_xeon64.sse2_winnt) using the
 command:
 
  "C:\Program Files\ANSYS Inc\v191\CFX\bin\perllib\cfx5solve.pl" -batch
    -ccl runInput.ccl -fullname "Fluid Flow CFX_008"
 
 Release 19.1
 
  Point Releases and Patches installed:
  ANSYS, Inc. Products Release 19.1
  SpaceClaim Release 19.1
  Autodyn Release 19.1
  LS-DYNA Release 19.1
  CFD-Post only Release 19.1
  CFX (includes CFD-Post) Release 19.1
  Chemkin Release 19.1
  EnSight Release 19.1
  FENSAP-ICE Release 19.1
  Fluent (includes CFD-Post) Release 19.1
  Forte Release 19.1
  Polyflow (includes CFD-Post) Release 19.1
  TurboGrid Release 19.1
  ICEM CFD Release 19.1
  Customization Files for User Programmable Features Release 19.1
  Mechanical Products Release 19.1
  Icepak (includes CFD-Post) Release 19.1
  Remote Solve Manager Standalone Services Release 19.1
  ACIS Geometry Interface Release 19.1
  Catia, Version 5 Geometry Interface Release 19.1
  NX Geometry Interface Release 19.1
  Parasolid Geometry Interface  Release 19.1
  ANSYS, Inc. License Manager Release 19.1
 
 Setting up CFX Solver run ...
 
 
 +--------------------------------------------------------------------+
 |                                                                    |
 |                    CFX Command Language for Run                    |
 |                                                                    |
 +--------------------------------------------------------------------+
 
 LIBRARY:
   CEL:
     EXPRESSIONS:
       inMassFlow = 1000.1065792576104 [kg s^-1]
     END
   END
   MATERIAL: Water
     Material Description = Water (liquid)
     Material Group = Water Data, Constant Property Liquids
     Option = Pure Substance
     Thermodynamic State = Liquid
     PROPERTIES:
       Option = General Material
       EQUATION OF STATE:
         Density = 997.0 [kg m^-3]
         Molar Mass = 18.02 [kg kmol^-1]
         Option = Value
       END
       SPECIFIC HEAT CAPACITY:
         Option = Value
         Specific Heat Capacity = 4181.7 [J kg^-1 K^-1]
         Specific Heat Type = Constant Pressure
       END
       REFERENCE STATE:
         Option = Specified Point
         Reference Pressure = 1 [atm]
         Reference Specific Enthalpy = 0.0 [J/kg]
         Reference Specific Entropy = 0.0 [J/kg/K]
         Reference Temperature = 25 [C]
       END
       DYNAMIC VISCOSITY:
         Dynamic Viscosity = 8.899E-4 [kg m^-1 s^-1]
         Option = Value
       END
       THERMAL CONDUCTIVITY:
         Option = Value
         Thermal Conductivity = 0.6069 [W m^-1 K^-1]
       END
       ABSORPTION COEFFICIENT:
         Absorption Coefficient = 1.0 [m^-1]
         Option = Value
       END
       SCATTERING COEFFICIENT:
         Option = Value
         Scattering Coefficient = 0.0 [m^-1]
       END
       REFRACTIVE INDEX:
         Option = Value
         Refractive Index = 1.0 [m m^-1]
       END
       THERMAL EXPANSIVITY:
         Option = Value
         Thermal Expansivity = 2.57E-04 [K^-1]
       END
     END
   END
 END
 FLOW: Flow Analysis 1
   SOLUTION UNITS:
     Angle Units = [rad]
     Length Units = [m]
     Mass Units = [kg]
     Solid Angle Units = [sr]
     Temperature Units = [K]
     Time Units = [s]
   END
   ANALYSIS TYPE:
     Option = Steady State
     EXTERNAL SOLVER COUPLING:
       Option = None
     END
   END
   DOMAIN: Default Domain
     Coord Frame = Coord 0
     Domain Type = Fluid
     Location = B17
     BOUNDARY: Default Domain Default
       Boundary Type = WALL
       Location = F12.17,F14.17,F16.17,F19.17,F20.17,F21.17
       BOUNDARY CONDITIONS:
         HEAT TRANSFER:
           Option = Adiabatic
         END
         MASS AND MOMENTUM:
           Option = No Slip Wall
         END
         WALL ROUGHNESS:
           Option = Smooth Wall
         END
       END
     END
     BOUNDARY: in1
       Boundary Type = INLET
       Location = in1
       BOUNDARY CONDITIONS:
         FLOW DIRECTION:
           Option = Normal to Boundary Condition
         END
         FLOW REGIME:
           Option = Subsonic
         END
         HEAT TRANSFER:
           Option = Static Temperature
           Static Temperature = 315 [K]
         END
         MASS AND MOMENTUM:
           Mass Flow Rate = inMassFlow
           Mass Flow Rate Area = As Specified
           Option = Mass Flow Rate
         END
         TURBULENCE:
           Option = Medium Intensity and Eddy Viscosity Ratio
         END
       END
     END
     BOUNDARY: in2
       Boundary Type = INLET
       Location = in2
       BOUNDARY CONDITIONS:
         FLOW DIRECTION:
           Option = Normal to Boundary Condition
         END
         FLOW REGIME:
           Option = Subsonic
         END
         HEAT TRANSFER:
           Option = Static Temperature
           Static Temperature = 285 [K]
         END
         MASS AND MOMENTUM:
           Mass Flow Rate = inMassFlow
           Mass Flow Rate Area = As Specified
           Option = Mass Flow Rate
         END
         TURBULENCE:
           Option = Medium Intensity and Eddy Viscosity Ratio
         END
       END
     END
     BOUNDARY: out
       Boundary Type = OUTLET
       Location = out
       BOUNDARY CONDITIONS:
         FLOW REGIME:
           Option = Subsonic
         END
         MASS AND MOMENTUM:
           Option = Static Pressure
           Relative Pressure = 0 [Pa]
         END
       END
     END
     DOMAIN MODELS:
       BUOYANCY MODEL:
         Option = Non Buoyant
       END
       DOMAIN MOTION:
         Option = Stationary
       END
       MESH DEFORMATION:
         Option = None
       END
       REFERENCE PRESSURE:
         Reference Pressure = 1 [atm]
       END
     END
     FLUID DEFINITION: Fluid 1
       Material = Water
       Option = Material Library
       MORPHOLOGY:
         Option = Continuous Fluid
       END
     END
     FLUID MODELS:
       COMBUSTION MODEL:
         Option = None
       END
       HEAT TRANSFER MODEL:
         Option = Thermal Energy
       END
       THERMAL RADIATION MODEL:
         Option = None
       END
       TURBULENCE MODEL:
         Option = k epsilon
       END
       TURBULENT WALL FUNCTIONS:
         Option = Scalable
       END
     END
   END
   OUTPUT CONTROL:
     RESULTS:
       File Compression Level = Default
       Option = Standard
     END
   END
   SOLVER CONTROL:
     Turbulence Numerics = High Resolution
     ADVECTION SCHEME:
       Option = High Resolution
     END
     CONVERGENCE CONTROL:
       Length Scale Option = Conservative
       Maximum Number of Iterations = 100
       Minimum Number of Iterations = 5
       Timescale Control = Auto Timescale
       Timescale Factor = 1.0
     END
     CONVERGENCE CRITERIA:
       Residual Target = 1.E-4
       Residual Type = RMS
     END
     DYNAMIC MODEL CONTROL:
       Global Dynamic Model Control = On
     END
   END
 END
 COMMAND FILE:
   Version = 19.1
   Results Version = 19.1
 END
 PARAMETERIZATION:
   INPUT FIELD: inMassFlow
     Expression Name = inMassFlow
     Method = Expression
   END
 END
 SIMULATION CONTROL:
   EXECUTION CONTROL:
     EXECUTABLE SELECTION:
       Double Precision = No
       Large Problem = No
     END
     INTERPOLATOR STEP CONTROL:
       Runtime Priority = Standard
       MEMORY CONTROL:
         Memory Allocation Factor = 1.0
       END
     END
     PARALLEL HOST LIBRARY:
       HOST DEFINITION: enpclab137
         Remote Host Name = ENPC-LAB137
         Host Architecture String = winnt-amd64
         Installation Root = C:\Program Files\ANSYS Inc\v%v\CFX
       END
     END
     PARTITIONER STEP CONTROL:
       Multidomain Option = Automatic
       Runtime Priority = Standard
       MEMORY CONTROL:
         Memory Allocation Factor = 1.0
       END
       PARTITION SMOOTHING:
         Maximum Partition Smoothing Sweeps = 100
         Option = Smooth
       END
       PARTITIONING TYPE:
         MeTiS Type = k-way
         Option = MeTiS
         Partition Size Rule = Automatic
       END
     END
     RUN DEFINITION:
       Run Mode = Full
       Solver Input File = Fluid Flow CFX.def
       Solver Results File = \
         H:/dos/CFD/CW/CFD-Static-Mixer/StaticMixerDX_pending/dp10_CFX_Solutio\
         n/Fluid Flow CFX_008.res
       INITIAL VALUES SPECIFICATION:
         INITIAL VALUES CONTROL:
           Use Mesh From = Solver Input File
           Continue History From = Workbench Initial Values
         END
         INITIAL VALUES: Workbench Initial Values
           Option = Results File
           File Name = Fluid Flow CFX_007.res
         END
       END
     END
     SOLVER STEP CONTROL:
       Runtime Priority = Standard
       MEMORY CONTROL:
         Memory Allocation Factor = 1.0
       END
       PARALLEL ENVIRONMENT:
         Number of Processes = 1
         Start Method = Serial
       END
     END
   END
 END
 
 
 +--------------------------------------------------------------------+
 |                                                                    |
 |                  Interpolation of Initial Values                   |
 |                                                                    |
 +--------------------------------------------------------------------+
 
 


 +--------------------------------------------------------------------+
 |                                                                    |
 |                    ANSYS(R) CFX(R) Interpolator                    |
 |                                                                    |
 | Release 19.1                                                       |
 | Build 19.1 2018-04-17T13:27:50.069000                              |
 | Tue Apr 17 15:02:11 GMTDT 2018                                     |
 |                                                                    |
 |                        Executable Attributes                       |
 |                                                                    |
 |           single-64bit-int32-archfort-optimised-std-lcomp          |
 |                                                                    |
 | (C) 1996-2018 ANSYS, Inc.                                          |
 |                                                                    |
 | All rights reserved. Unauthorized use, distribution or duplication |
 | is prohibited. This product is subject to U.S. laws governing      |
 | export and re-export. For full Legal Notice, see documentation.    |
 +--------------------------------------------------------------------+




 +--------------------------------------------------------------------+
 |                  Job Information at Start of Run                   |
 +--------------------------------------------------------------------+

 Run mode:       serial run

 Host computer:  ENPC-LAB137 (PID:11364)

 Job started:    Wed Dec  5 15:38:01 2018


 +--------------------------------------------------------------------+
 |        Memory Allocated for Run  (Actual usage may be less)        |
 +--------------------------------------------------------------------+

           | Real       | Integer    | Character | Logical  | Double
 ----------+------------+------------+-----------+----------+----------
 Mwords    |       1.61 |       1.92 |      0.20 |     0.01 |     0.08
 Mbytes    |       6.15 |       7.33 |      0.19 |     0.04 |     0.63
 ----------+------------+------------+-----------+----------+----------


 +--------------------------------------------------------------------+
 |                  Host Memory Information (Mbytes)                  |
 +--------------------------------------------------------------------+
 |          Host           |     System     |   Allocated    |   %    |
 +-------------------------+----------------+----------------+--------+
 | ENPC-LAB137             |     16240.97   |        14.34   |   0.09 |
 +-------------------------+----------------+----------------+--------+

 ======================================================================
               Interpolating Onto Domain "Default Domain"
 ======================================================================

 Total Number of Nodes in the Target Domain              =        27225
 Bounding Box Volume of the Target Mesh                  =  1.01712E+02


 Checking all source domains from the source file:
   Target mesh is different from domain "Default Domain".

 Searching for Candidate Source Domains:
   Domain "Default Domain"
     Number of Mapped Nodes                     =        24538 ( 90.1%)
     Bounding Box Overlap Volume                =  8.09843E+01 ( 79.6%)
   Setting Up Unmapped Nodes:
     Number of Unmapped Nodes                   =         2687 (  9.9%)

 Start interpolation of variables: 
   Source Domain Name                                    Mapped Nodes
   Default Domain                                        24538 ( 90.1%)

 +--------------------------------------------------------------------+
 |                     Variable Range Information                     |
 +--------------------------------------------------------------------+
 +--------------------------------------------------------------------+
 |      Variable Name                         |    min    |    max    |
 +--------------------------------------------------------------------+
 | Thermal Conductivity                       |  6.07E-01 |  6.07E-01 |
 | Courant Number                             |  9.61E-01 |  3.37E+01 |
 | Density                                    |  9.97E+02 |  9.97E+02 |
 | Static Enthalpy                            | -5.50E+04 |  7.05E+04 |
 | Static Entropy                             | -1.89E+02 |  2.30E+02 |
 | Pressure                                   | -1.06E+04 |  7.82E+04 |
 | Specific Heat Capacity at Constant Pressure|  4.18E+03 |  4.18E+03 |
 | Specific Heat Capacity at Constant Volume  |  4.18E+03 |  4.18E+03 |
 | Turbulence Eddy Dissipation                |  3.27E-04 |  2.72E+02 |
 | Turbulence Eddy Frequency                  |  6.73E+00 |  2.82E+03 |
 | Temperature                                |  2.85E+02 |  3.15E+02 |
 | Turbulence Kinetic Energy                  |  1.05E-04 |  4.67E+00 |
 | Velocity                                   |  1.72E-01 |  7.70E+00 |
 | Dynamic Viscosity                          |  8.90E-04 |  8.90E-04 |
 | Eddy Viscosity                             |  1.51E-03 |  3.32E+02 |
 +--------------------------------------------------------------------+

 +--------------------------------------------------------------------+
 |                 CPU Requirements of Interpolation                  |
 +--------------------------------------------------------------------+

 Interpolation Step              Time    Percentage
                                (secs.   %total)
 ----------------------------------------------------------------------
 Tree Setup                     4.15E-01   10.2 %
 Interpolation                  1.61E+00   39.8 %
 Unmatched Nodes                8.70E-02    2.1 %
 Miscellaneous                  1.93E+00   47.8 %
                                --------
 Total                          4.05E+00

 +--------------------------------------------------------------------+
 |                   Job Information at End of Run                    |
 +--------------------------------------------------------------------+

 Host computer:  ENPC-LAB137 (PID:11364)

 Job finished:   Wed Dec  5 15:38:05 2018

 Total wall clock time: 4.054E+00 seconds
             or: (          0:         0:         0:     4.054 )
                 (       Days:     Hours:   Minutes:   Seconds )

 
 +--------------------------------------------------------------------+
 |                                                                    |
 |                               Solver                               |
 |                                                                    |
 +--------------------------------------------------------------------+
 



 +--------------------------------------------------------------------+
 |                                                                    |
 |                       ANSYS(R) CFX(R) Solver                       |
 |                                                                    |
 | Release 19.1                                                       |
 | Build 19.1 2018-04-17T13:27:50.069000                              |
 | Tue Apr 17 15:02:11 GMTDT 2018                                     |
 |                                                                    |
 |                        Executable Attributes                       |
 |                                                                    |
 |           single-64bit-int32-archfort-optimised-std-lcomp          |
 |                                                                    |
 | (C) 1996-2018 ANSYS, Inc.                                          |
 |                                                                    |
 | All rights reserved. Unauthorized use, distribution or duplication |
 | is prohibited. This product is subject to U.S. laws governing      |
 | export and re-export. For full Legal Notice, see documentation.    |
 +--------------------------------------------------------------------+




 +--------------------------------------------------------------------+
 |                  Job Information at Start of Run                   |
 +--------------------------------------------------------------------+

 Run mode:       serial run

 Host computer:  ENPC-LAB137 (PID:5732)

 Job started:    Wed Dec  5 15:38:08 2018

 +--------------------------------------------------------------------+
 |                        License Information                         |
 +--------------------------------------------------------------------+
 
 License Cap:    ANSYS CFX Solver (Max 128K Nodes)
 License ID:     VIGO_campus_bath_ac_uk-SYSTEM-1456-528431


 +--------------------------------------------------------------------+
 |        Memory Allocated for Run  (Actual usage may be less)        |
 +--------------------------------------------------------------------+

           | Real       | Integer    | Character | Logical  | Double
 ----------+------------+------------+-----------+----------+----------
 Mwords    |      17.38 |       4.79 |      7.26 |     0.12 |     0.89
 Mbytes    |      66.29 |      18.28 |      6.93 |     0.46 |     6.80
 ----------+------------+------------+-----------+----------+----------


 +--------------------------------------------------------------------+
 |                  Host Memory Information (Mbytes)                  |
 +--------------------------------------------------------------------+
 |          Host           |     System     |   Allocated    |   %    |
 +-------------------------+----------------+----------------+--------+
 | ENPC-LAB137             |     16240.97   |        98.75   |   0.61 |
 +-------------------------+----------------+----------------+--------+


 +--------------------------------------------------------------------+
 |                     ****** Notice ******                           |
 | The Wall Heat Transfer Coefficient written to the results file for |
 | any turbulent phase with heat transfer is based on the turbulent   |
 | wall function coefficient. It is consistent with the Wall Heat Flux|
 | the wall temperature, and the Wall Adjacent Temperature            |
 | (near-wall temperature).  If you would like it to be based on a    |
 | user-specified bulk temperature instead, please set the expert     |
 | parameter "tbulk for htc = <value>".                               |
 +--------------------------------------------------------------------+

 +--------------------------------------------------------------------+
 |                      Topology Simplification                       |
 +--------------------------------------------------------------------+

 +--------------------------------------------------------------------+
 |                       ****** Warning ******                        |
 |                                                                    |
 | Topology simplification is activated with the following            |
 | restrictions:                                                      |
 |                                                                    |
 | - Mesh regions referenced only within User Fortran and NOT         |
 |   in the command file will cause the solver to stop.               |
 | - The solver will stop during any "Edit Run in Progress" step      |
 |   if new 2D regions are referenced.                                |
 +--------------------------------------------------------------------+

 +--------------------------------------------------------------------+
 |                          Mesh Statistics                           |
 +--------------------------------------------------------------------+
 | Domain Name          | Orthog. Angle | Exp. Factor  | Aspect Ratio |
 +----------------------+---------------+--------------+--------------+
 |                      | Minimum [deg] |   Maximum    |    Maximum   |
 +----------------------+---------------+--------------+--------------+
 | Default Domain       |       31.5 ok |         8 ok |        28 OK |
 +----------------------+---------------+--------------+--------------+
 |                      |  %!  %ok  %OK | %!  %ok  %OK | %!  %ok  %OK |
 +----------------------+---------------+--------------+--------------+
 | Default Domain       |   0    1   99 |  0   <1  100 |  0    0  100 |
 +----------------------+---------------+--------------+--------------+

 Domain Name : Default Domain

     Total Number of Nodes                                =       27225

     Total Number of Elements                             =       98159
         Total Number of Tetrahedrons                     =       71764
         Total Number of Prisms                           =       26395

     Total Number of Faces                                =        7167

 +--------------------------------------------------------------------+
 |      Initial Conditions Supplied by Fields in the Input Files      |
 +--------------------------------------------------------------------+

 Domain Name : Default Domain
     Courant Number
     Eddy Viscosity
     Pressure
     Specific Heat Capacity at Constant Pressure
     Static Enthalpy
     Static Entropy
     Temperature
     Turbulence Eddy Dissipation
     Turbulence Eddy Frequency
     Turbulence Kinetic Energy
     Velocity

 +--------------------------------------------------------------------+
 |                     Average Scale Information                      |
 +--------------------------------------------------------------------+

 Domain Name : Default Domain
     Global Length                                         = 3.2201E+00
     Minimum Extent                                        = 4.0000E+00
     Maximum Extent                                        = 5.0615E+00
     Density                                               = 9.9700E+02
     Dynamic Viscosity                                     = 8.8990E-04
     Velocity                                              = 5.7537E+00
     Advection Time                                        = 5.5966E-01
     Reynolds Number                                       = 2.0757E+07
     Thermal Conductivity                                  = 6.0690E-01
     Specific Heat Capacity at Constant Pressure           = 4.1817E+03
     Prandtl Number                                        = 6.1316E+00
     Temperature Range                                     = 3.0007E+01

 +--------------------------------------------------------------------+
 |                Checking for Isolated Fluid Regions                 |
 +--------------------------------------------------------------------+
 
 No isolated fluid regions were found.

 +--------------------------------------------------------------------+
 |              The Equations Solved in This Calculation              |
 +--------------------------------------------------------------------+

 Subsystem : Momentum and Mass

   U-Mom
   V-Mom
   W-Mom
   P-Mass

 Subsystem : Heat Transfer

   H-Energy

 Subsystem : TurbKE and Diss.K

   K-TurbKE
   E-Diss.K
                   
 CFD Solver started: Wed Dec  5 15:38:11 2018


 +--------------------------------------------------------------------+
 |                       Convergence History                          |
 +--------------------------------------------------------------------+

 ======================================================================
 |                        Timescale Information                       |
 ----------------------------------------------------------------------
 |       Equation       |         Type          |      Timescale      |
 +----------------------+-----------------------+---------------------+
 | U-Mom                | Auto Timescale        |     1.72916E-01     |
 | V-Mom                | Auto Timescale        |     1.72916E-01     |
 | W-Mom                | Auto Timescale        |     1.72916E-01     |
 +----------------------+-----------------------+---------------------+
 | H-Energy             | Auto Timescale        |     1.72916E-01     |
 +----------------------+-----------------------+---------------------+
 | K-TurbKE             | Auto Timescale        |     1.72916E-01     |
 | E-Diss.K             | Auto Timescale        |     1.72916E-01     |
 +----------------------+-----------------------+---------------------+

 ======================================================================
 OUTER LOOP ITERATION =  357 (    1) CPU SECONDS = 2.444E+02 (3.129E+00)
 ----------------------------------------------------------------------
 |       Equation       | Rate | RMS Res | Max Res |  Linear Solution |
 +----------------------+------+---------+---------+------------------+
 | U-Mom                | 0.00 | 4.6E-03 | 7.1E-02 |       1.3E-01  ok|
 | V-Mom                | 0.00 | 8.3E-03 | 3.1E-01 |       1.0E-01  ok|
 | W-Mom                | 0.00 | 5.0E-03 | 1.5E-01 |       1.3E-01  ok|
 | P-Mass               | 0.00 | 9.6E-03 | 2.8E-01 |  5.2  5.9E-02  OK|
 +----------------------+------+---------+---------+------------------+
 | H-Energy             | 0.00 | 1.1E-02 | 1.8E-01 |  5.4  3.6E-02  OK|
 +----------------------+------+---------+---------+------------------+
 | K-TurbKE             | 0.00 | 7.1E-03 | 9.8E-02 |  5.4  5.1E-02  OK|
 | E-Diss.K             | 0.00 | 4.3E-02 | 6.8E-01 |  7.2  5.6E-03  OK|
 +----------------------+------+---------+---------+------------------+

 ======================================================================
 OUTER LOOP ITERATION =  358 (    2) CPU SECONDS = 2.455E+02 (4.213E+00)
 ----------------------------------------------------------------------
 |       Equation       | Rate | RMS Res | Max Res |  Linear Solution |
 +----------------------+------+---------+---------+------------------+
 | U-Mom                | 3.14 | 1.5E-02 | 2.8E-01 |       4.0E-02  OK|
 | V-Mom                | 1.71 | 1.4E-02 | 2.9E-01 |       4.2E-02  OK|
 | W-Mom                | 1.72 | 8.7E-03 | 1.8E-01 |       3.2E-02  OK|
 | P-Mass               | 0.16 | 1.5E-03 | 4.8E-02 |  9.4  4.4E-02  OK|
 +----------------------+------+---------+---------+------------------+
 | H-Energy             | 0.51 | 5.9E-03 | 1.4E-01 |  5.4  6.3E-02  OK|
 +----------------------+------+---------+---------+------------------+
 | K-TurbKE             | 1.51 | 1.1E-02 | 4.6E-01 |  5.4  5.3E-02  OK|
 | E-Diss.K             | 0.70 | 3.0E-02 | 5.2E-01 |  7.2  3.5E-03  OK|
 +----------------------+------+---------+---------+------------------+

 ======================================================================
 OUTER LOOP ITERATION =  359 (    3) CPU SECONDS = 2.465E+02 (5.203E+00)
 ----------------------------------------------------------------------
 |       Equation       | Rate | RMS Res | Max Res |  Linear Solution |
 +----------------------+------+---------+---------+------------------+
 | U-Mom                | 0.91 | 1.3E-02 | 3.1E-01 |       4.6E-02  OK|
 | V-Mom                | 0.94 | 1.3E-02 | 4.2E-01 |       5.6E-02  OK|
 | W-Mom                | 1.09 | 9.4E-03 | 2.3E-01 |       5.1E-02  OK|
 | P-Mass               | 0.96 | 1.5E-03 | 5.7E-02 |  9.4  1.8E-02  OK|
 +----------------------+------+---------+---------+------------------+
 | H-Energy             | 0.74 | 4.3E-03 | 9.9E-02 |  5.4  6.1E-02  OK|
 +----------------------+------+---------+---------+------------------+
 | K-TurbKE             | 0.62 | 6.6E-03 | 6.8E-01 |  5.4  4.0E-02  OK|
 | E-Diss.K             | 0.35 | 1.0E-02 | 1.0E+00 |  7.2  3.5E-03  OK|
 +----------------------+------+---------+---------+------------------+

 ======================================================================
 OUTER LOOP ITERATION =  360 (    4) CPU SECONDS = 2.474E+02 (6.166E+00)
 ----------------------------------------------------------------------
 |       Equation       | Rate | RMS Res | Max Res |  Linear Solution |
 +----------------------+------+---------+---------+------------------+
 | U-Mom                | 0.47 | 6.3E-03 | 1.6E-01 |       1.2E-01  ok|
 | V-Mom                | 0.49 | 6.5E-03 | 2.2E-01 |       1.5E-01  ok|
 | W-Mom                | 0.52 | 4.9E-03 | 1.2E-01 |       2.0E-01  ok|
 | P-Mass               | 1.00 | 1.5E-03 | 4.5E-02 |  5.2  5.8E-02  OK|
 +----------------------+------+---------+---------+------------------+
 | H-Energy             | 0.65 | 2.8E-03 | 5.2E-02 |  5.4  4.9E-02  OK|
 +----------------------+------+---------+---------+------------------+
 | K-TurbKE             | 2.74 | 1.8E-02 | 1.8E+00 |  5.4  2.4E-02  OK|
 | E-Diss.K             | 2.63 | 2.7E-02 | 3.2E+00 |  7.2  2.5E-03  OK|
 +----------------------+------+---------+---------+------------------+

 ======================================================================
 |                        Timescale Information                       |
 ----------------------------------------------------------------------
 |       Equation       |         Type          |      Timescale      |
 +----------------------+-----------------------+---------------------+
 | U-Mom                | Auto Timescale        |     1.91317E-01     |
 | V-Mom                | Auto Timescale        |     1.91317E-01     |
 | W-Mom                | Auto Timescale        |     1.91317E-01     |
 +----------------------+-----------------------+---------------------+
 | H-Energy             | Auto Timescale        |     1.91317E-01     |
 +----------------------+-----------------------+---------------------+
 | K-TurbKE             | Auto Timescale        |     1.91317E-01     |
 | E-Diss.K             | Auto Timescale        |     1.91317E-01     |
 +----------------------+-----------------------+---------------------+

 ======================================================================
 OUTER LOOP ITERATION =  361 (    5) CPU SECONDS = 2.484E+02 (7.105E+00)
 ----------------------------------------------------------------------
 |       Equation       | Rate | RMS Res | Max Res |  Linear Solution |
 +----------------------+------+---------+---------+------------------+
 | U-Mom                | 0.64 | 4.0E-03 | 9.3E-02 |       1.2E-01  ok|
 | V-Mom                | 0.66 | 4.3E-03 | 1.3E-01 |       1.4E-01  ok|
 | W-Mom                | 0.58 | 2.8E-03 | 7.5E-02 |       1.8E-01  ok|
 | P-Mass               | 0.37 | 5.4E-04 | 1.3E-02 |  5.2  4.8E-02  OK|
 +----------------------+------+---------+---------+------------------+
 | H-Energy             | 0.75 | 2.1E-03 | 4.2E-02 |  5.4  4.7E-02  OK|
 +----------------------+------+---------+---------+------------------+
 | K-TurbKE             | 0.50 | 9.1E-03 | 5.8E-01 |  5.4  3.8E-02  OK|
 | E-Diss.K             | 0.45 | 1.2E-02 | 6.4E-01 |  7.2  2.8E-03  OK|
 +----------------------+------+---------+---------+------------------+

 ======================================================================
 OUTER LOOP ITERATION =  362 (    6) CPU SECONDS = 2.493E+02 (8.064E+00)
 ----------------------------------------------------------------------
 |       Equation       | Rate | RMS Res | Max Res |  Linear Solution |
 +----------------------+------+---------+---------+------------------+
 | U-Mom                | 0.71 | 2.8E-03 | 7.1E-02 |       1.2E-01  ok|
 | V-Mom                | 0.66 | 2.8E-03 | 8.2E-02 |       1.4E-01  ok|
 | W-Mom                | 0.61 | 1.7E-03 | 4.7E-02 |       2.0E-01  ok|
 | P-Mass               | 0.55 | 3.0E-04 | 8.3E-03 |  5.2  5.9E-02  OK|
 +----------------------+------+---------+---------+------------------+
 | H-Energy             | 0.90 | 1.9E-03 | 5.2E-02 |  5.4  4.2E-02  OK|
 +----------------------+------+---------+---------+------------------+
 | K-TurbKE             | 0.50 | 4.5E-03 | 2.1E-01 |  5.4  4.0E-02  OK|
 | E-Diss.K             | 0.46 | 5.6E-03 | 1.7E-01 |  7.2  4.9E-03  OK|
 +----------------------+------+---------+---------+------------------+

 ======================================================================
 OUTER LOOP ITERATION =  363 (    7) CPU SECONDS = 2.503E+02 (9.024E+00)
 ----------------------------------------------------------------------
 |       Equation       | Rate | RMS Res | Max Res |  Linear Solution |
 +----------------------+------+---------+---------+------------------+
 | U-Mom                | 0.67 | 1.9E-03 | 4.5E-02 |       1.1E-01  ok|
 | V-Mom                | 0.62 | 1.7E-03 | 4.9E-02 |       1.5E-01  ok|
 | W-Mom                | 0.62 | 1.0E-03 | 2.9E-02 |       1.9E-01  ok|
 | P-Mass               | 0.58 | 1.7E-04 | 5.4E-03 |  5.2  7.8E-02  OK|
 +----------------------+------+---------+---------+------------------+
 | H-Energy             | 0.84 | 1.6E-03 | 4.8E-02 |  5.4  3.7E-02  OK|
 +----------------------+------+---------+---------+------------------+
 | K-TurbKE             | 0.48 | 2.2E-03 | 7.3E-02 |  5.4  4.0E-02  OK|
 | E-Diss.K             | 0.48 | 2.7E-03 | 5.6E-02 |  7.2  9.5E-03  OK|
 +----------------------+------+---------+---------+------------------+

 ======================================================================
 OUTER LOOP ITERATION =  364 (    8) CPU SECONDS = 2.513E+02 (9.990E+00)
 ----------------------------------------------------------------------
 |       Equation       | Rate | RMS Res | Max Res |  Linear Solution |
 +----------------------+------+---------+---------+------------------+
 | U-Mom                | 0.66 | 1.3E-03 | 2.6E-02 |       1.1E-01  ok|
 | V-Mom                | 0.64 | 1.1E-03 | 2.9E-02 |       1.5E-01  ok|
 | W-Mom                | 0.63 | 6.6E-04 | 1.7E-02 |       1.8E-01  ok|
 | P-Mass               | 0.59 | 1.0E-04 | 2.6E-03 |  5.2  9.3E-02  OK|
 +----------------------+------+---------+---------+------------------+
 | H-Energy             | 0.76 | 1.2E-03 | 3.1E-02 |  5.4  3.7E-02  OK|
 +----------------------+------+---------+---------+------------------+
 | K-TurbKE             | 0.57 | 1.2E-03 | 2.7E-02 |  5.4  3.9E-02  OK|
 | E-Diss.K             | 0.55 | 1.5E-03 | 2.5E-02 |  7.2  1.4E-02  OK|
 +----------------------+------+---------+---------+------------------+

 ======================================================================
 OUTER LOOP ITERATION =  365 (    9) CPU SECONDS = 2.522E+02 (1.095E+01)
 ----------------------------------------------------------------------
 |       Equation       | Rate | RMS Res | Max Res |  Linear Solution |
 +----------------------+------+---------+---------+------------------+
 | U-Mom                | 0.77 | 9.8E-04 | 1.4E-02 |       4.2E-02  OK|
 | V-Mom                | 0.74 | 8.3E-04 | 1.7E-02 |       4.7E-02  OK|
 | W-Mom                | 0.80 | 5.3E-04 | 9.0E-03 |       5.8E-02  OK|
 | P-Mass               | 0.65 | 6.7E-05 | 1.4E-03 |  9.4  3.0E-02  OK|
 +----------------------+------+---------+---------+------------------+
 | H-Energy             | 0.81 | 9.9E-04 | 2.3E-02 |  5.4  3.8E-02  OK|
 +----------------------+------+---------+---------+------------------+
 | K-TurbKE             | 0.69 | 8.6E-04 | 1.3E-02 |  5.4  4.0E-02  OK|
 | E-Diss.K             | 0.63 | 9.2E-04 | 1.5E-02 |  7.2  1.5E-02  OK|
 +----------------------+------+---------+---------+------------------+

 ======================================================================
 |                        Timescale Information                       |
 ----------------------------------------------------------------------
 |       Equation       |         Type          |      Timescale      |
 +----------------------+-----------------------+---------------------+
 | U-Mom                | Auto Timescale        |     1.94452E-01     |
 | V-Mom                | Auto Timescale        |     1.94452E-01     |
 | W-Mom                | Auto Timescale        |     1.94452E-01     |
 +----------------------+-----------------------+---------------------+
 | H-Energy             | Auto Timescale        |     1.94452E-01     |
 +----------------------+-----------------------+---------------------+
 | K-TurbKE             | Auto Timescale        |     1.94452E-01     |
 | E-Diss.K             | Auto Timescale        |     1.94452E-01     |
 +----------------------+-----------------------+---------------------+

 ======================================================================
 OUTER LOOP ITERATION =  366 (   10) CPU SECONDS = 2.532E+02 (1.195E+01)
 ----------------------------------------------------------------------
 |       Equation       | Rate | RMS Res | Max Res |  Linear Solution |
 +----------------------+------+---------+---------+------------------+
 | U-Mom                | 0.90 | 8.8E-04 | 1.3E-02 |       4.5E-02  OK|
 | V-Mom                | 0.78 | 6.5E-04 | 1.0E-02 |       4.3E-02  OK|
 | W-Mom                | 0.96 | 5.1E-04 | 8.2E-03 |       7.7E-02  OK|
 | P-Mass               | 0.68 | 4.5E-05 | 7.9E-04 |  9.4  3.5E-02  OK|
 +----------------------+------+---------+---------+------------------+
 | H-Energy             | 0.86 | 8.5E-04 | 2.2E-02 |  5.4  4.0E-02  OK|
 +----------------------+------+---------+---------+------------------+
 | K-TurbKE             | 0.79 | 6.8E-04 | 8.9E-03 |  5.4  4.4E-02  OK|
 | E-Diss.K             | 0.70 | 6.4E-04 | 1.4E-02 |  7.2  1.7E-02  OK|
 +----------------------+------+---------+---------+------------------+

 ======================================================================
 OUTER LOOP ITERATION =  367 (   11) CPU SECONDS = 2.542E+02 (1.295E+01)
 ----------------------------------------------------------------------
 |       Equation       | Rate | RMS Res | Max Res |  Linear Solution |
 +----------------------+------+---------+---------+------------------+
 | U-Mom                | 0.85 | 7.5E-04 | 1.1E-02 |       4.6E-02  OK|
 | V-Mom                | 0.79 | 5.1E-04 | 7.8E-03 |       4.1E-02  OK|
 | W-Mom                | 0.90 | 4.5E-04 | 6.3E-03 |       7.9E-02  OK|
 | P-Mass               | 0.83 | 3.7E-05 | 1.0E-03 |  9.4  3.6E-02  OK|
 +----------------------+------+---------+---------+------------------+
 | H-Energy             | 0.88 | 7.5E-04 | 2.0E-02 |  5.4  4.0E-02  OK|
 +----------------------+------+---------+---------+------------------+
 | K-TurbKE             | 0.84 | 5.7E-04 | 7.6E-03 |  5.4  4.9E-02  OK|
 | E-Diss.K             | 0.83 | 5.3E-04 | 1.7E-02 |  7.2  1.7E-02  OK|
 +----------------------+------+---------+---------+------------------+

 ======================================================================
 OUTER LOOP ITERATION =  368 (   12) CPU SECONDS = 2.552E+02 (1.393E+01)
 ----------------------------------------------------------------------
 |       Equation       | Rate | RMS Res | Max Res |  Linear Solution |
 +----------------------+------+---------+---------+------------------+
 | U-Mom                | 0.82 | 6.1E-04 | 8.4E-03 |       4.4E-02  OK|
 | V-Mom                | 0.81 | 4.1E-04 | 6.6E-03 |       3.9E-02  OK|
 | W-Mom                | 0.85 | 3.9E-04 | 6.3E-03 |       6.7E-02  OK|
 | P-Mass               | 0.86 | 3.2E-05 | 9.8E-04 |  9.4  3.3E-02  OK|
 +----------------------+------+---------+---------+------------------+
 | H-Energy             | 0.84 | 6.3E-04 | 1.8E-02 |  5.4  4.2E-02  OK|
 +----------------------+------+---------+---------+------------------+
 | K-TurbKE             | 0.88 | 5.0E-04 | 7.6E-03 |  5.4  5.4E-02  OK|
 | E-Diss.K             | 0.95 | 5.0E-04 | 1.9E-02 |  7.2  1.8E-02  OK|
 +----------------------+------+---------+---------+------------------+

 ======================================================================
 OUTER LOOP ITERATION =  369 (   13) CPU SECONDS = 2.562E+02 (1.489E+01)
 ----------------------------------------------------------------------
 |       Equation       | Rate | RMS Res | Max Res |  Linear Solution |
 +----------------------+------+---------+---------+------------------+
 | U-Mom                | 0.82 | 5.0E-04 | 7.2E-03 |       4.1E-02  OK|
 | V-Mom                | 0.82 | 3.4E-04 | 6.6E-03 |       3.9E-02  OK|
 | W-Mom                | 0.86 | 3.3E-04 | 5.3E-03 |       5.2E-02  OK|
 | P-Mass               | 0.86 | 2.8E-05 | 8.0E-04 |  9.4  3.3E-02  OK|
 +----------------------+------+---------+---------+------------------+
 | H-Energy             | 0.85 | 5.3E-04 | 1.3E-02 |  5.4  4.5E-02  OK|
 +----------------------+------+---------+---------+------------------+
 | K-TurbKE             | 0.91 | 4.6E-04 | 8.4E-03 |  5.4  5.4E-02  OK|
 | E-Diss.K             | 0.95 | 4.8E-04 | 1.8E-02 |  7.2  1.8E-02  OK|
 +----------------------+------+---------+---------+------------------+

 ======================================================================
 OUTER LOOP ITERATION =  370 (   14) CPU SECONDS = 2.571E+02 (1.586E+01)
 ----------------------------------------------------------------------
 |       Equation       | Rate | RMS Res | Max Res |  Linear Solution |
 +----------------------+------+---------+---------+------------------+
 | U-Mom                | 0.84 | 4.2E-04 | 6.6E-03 |       3.8E-02  OK|
 | V-Mom                | 0.82 | 2.8E-04 | 6.5E-03 |       3.9E-02  OK|
 | W-Mom                | 0.88 | 2.9E-04 | 5.7E-03 |       4.2E-02  OK|
 | P-Mass               | 0.88 | 2.4E-05 | 6.3E-04 |  9.4  3.3E-02  OK|
 +----------------------+------+---------+---------+------------------+
 | H-Energy             | 0.90 | 4.8E-04 | 7.0E-03 |  5.4  4.7E-02  OK|
 +----------------------+------+---------+---------+------------------+
 | K-TurbKE             | 0.92 | 4.2E-04 | 8.1E-03 |  5.4  5.2E-02  OK|
 | E-Diss.K             | 0.90 | 4.3E-04 | 1.6E-02 |  7.2  1.9E-02  OK|
 +----------------------+------+---------+---------+------------------+

 ======================================================================
 |                        Timescale Information                       |
 ----------------------------------------------------------------------
 |       Equation       |         Type          |      Timescale      |
 +----------------------+-----------------------+---------------------+
 | U-Mom                | Auto Timescale        |     1.94758E-01     |
 | V-Mom                | Auto Timescale        |     1.94758E-01     |
 | W-Mom                | Auto Timescale        |     1.94758E-01     |
 +----------------------+-----------------------+---------------------+
 | H-Energy             | Auto Timescale        |     1.94758E-01     |
 +----------------------+-----------------------+---------------------+
 | K-TurbKE             | Auto Timescale        |     1.94758E-01     |
 | E-Diss.K             | Auto Timescale        |     1.94758E-01     |
 +----------------------+-----------------------+---------------------+

 ======================================================================
 OUTER LOOP ITERATION =  371 (   15) CPU SECONDS = 2.581E+02 (1.685E+01)
 ----------------------------------------------------------------------
 |       Equation       | Rate | RMS Res | Max Res |  Linear Solution |
 +----------------------+------+---------+---------+------------------+
 | U-Mom                | 0.85 | 3.6E-04 | 5.9E-03 |       3.5E-02  OK|
 | V-Mom                | 0.84 | 2.3E-04 | 3.5E-03 |       3.9E-02  OK|
 | W-Mom                | 0.90 | 2.6E-04 | 4.8E-03 |       4.1E-02  OK|
 | P-Mass               | 0.89 | 2.2E-05 | 5.0E-04 |  9.4  3.3E-02  OK|
 +----------------------+------+---------+---------+------------------+
 | H-Energy             | 0.93 | 4.4E-04 | 6.0E-03 |  5.4  4.9E-02  OK|
 +----------------------+------+---------+---------+------------------+
 | K-TurbKE             | 0.94 | 4.0E-04 | 7.0E-03 |  5.4  5.0E-02  OK|
 | E-Diss.K             | 0.86 | 3.7E-04 | 1.4E-02 |  7.2  1.9E-02  OK|
 +----------------------+------+---------+---------+------------------+

 ======================================================================
 OUTER LOOP ITERATION =  372 (   16) CPU SECONDS = 2.591E+02 (1.784E+01)
 ----------------------------------------------------------------------
 |       Equation       | Rate | RMS Res | Max Res |  Linear Solution |
 +----------------------+------+---------+---------+------------------+
 | U-Mom                | 0.86 | 3.1E-04 | 5.5E-03 |       3.4E-02  OK|
 | V-Mom                | 0.88 | 2.1E-04 | 3.1E-03 |       4.0E-02  OK|
 | W-Mom                | 0.91 | 2.4E-04 | 4.6E-03 |       4.7E-02  OK|
 | P-Mass               | 0.90 | 2.0E-05 | 3.9E-04 |  9.4  3.4E-02  OK|
 +----------------------+------+---------+---------+------------------+
 | H-Energy             | 0.93 | 4.1E-04 | 6.2E-03 |  5.4  5.1E-02  OK|
 +----------------------+------+---------+---------+------------------+
 | K-TurbKE             | 0.95 | 3.8E-04 | 6.4E-03 |  5.4  4.7E-02  OK|
 | E-Diss.K             | 0.84 | 3.1E-04 | 1.1E-02 |  7.2  2.0E-02  OK|
 +----------------------+------+---------+---------+------------------+

 ======================================================================
 OUTER LOOP ITERATION =  373 (   17) CPU SECONDS = 2.601E+02 (1.883E+01)
 ----------------------------------------------------------------------
 |       Equation       | Rate | RMS Res | Max Res |  Linear Solution |
 +----------------------+------+---------+---------+------------------+
 | U-Mom                | 0.86 | 2.6E-04 | 4.6E-03 |       3.4E-02  OK|
 | V-Mom                | 0.92 | 1.9E-04 | 3.0E-03 |       4.1E-02  OK|
 | W-Mom                | 0.92 | 2.2E-04 | 4.0E-03 |       5.1E-02  OK|
 | P-Mass               | 0.91 | 1.8E-05 | 3.7E-04 |  9.4  3.6E-02  OK|
 +----------------------+------+---------+---------+------------------+
 | H-Energy             | 0.94 | 3.9E-04 | 5.8E-03 |  5.4  5.2E-02  OK|
 +----------------------+------+---------+---------+------------------+
 | K-TurbKE             | 0.96 | 3.6E-04 | 5.6E-03 |  5.4  4.4E-02  OK|
 | E-Diss.K             | 0.86 | 2.7E-04 | 7.5E-03 |  7.2  2.1E-02  OK|
 +----------------------+------+---------+---------+------------------+

 ======================================================================
 OUTER LOOP ITERATION =  374 (   18) CPU SECONDS = 2.611E+02 (1.986E+01)
 ----------------------------------------------------------------------
 |       Equation       | Rate | RMS Res | Max Res |  Linear Solution |
 +----------------------+------+---------+---------+------------------+
 | U-Mom                | 0.86 | 2.3E-04 | 3.9E-03 |       3.6E-02  OK|
 | V-Mom                | 0.95 | 1.8E-04 | 3.0E-03 |       4.2E-02  OK|
 | W-Mom                | 0.92 | 2.0E-04 | 3.8E-03 |       5.1E-02  OK|
 | P-Mass               | 0.92 | 1.6E-05 | 3.7E-04 |  9.4  4.0E-02  OK|
 +----------------------+------+---------+---------+------------------+
 | H-Energy             | 0.94 | 3.7E-04 | 6.0E-03 |  5.4  5.2E-02  OK|
 +----------------------+------+---------+---------+------------------+
 | K-TurbKE             | 0.97 | 3.5E-04 | 5.3E-03 |  5.4  4.3E-02  OK|
 | E-Diss.K             | 0.90 | 2.4E-04 | 5.4E-03 |  7.2  2.1E-02  OK|
 +----------------------+------+---------+---------+------------------+

 ======================================================================
 OUTER LOOP ITERATION =  375 (   19) CPU SECONDS = 2.621E+02 (2.088E+01)
 ----------------------------------------------------------------------
 |       Equation       | Rate | RMS Res | Max Res |  Linear Solution |
 +----------------------+------+---------+---------+------------------+
 | U-Mom                | 0.87 | 2.0E-04 | 3.4E-03 |       4.0E-02  OK|
 | V-Mom                | 0.96 | 1.7E-04 | 3.0E-03 |       4.1E-02  OK|
 | W-Mom                | 0.92 | 1.9E-04 | 3.9E-03 |       5.0E-02  OK|
 | P-Mass               | 0.93 | 1.5E-05 | 3.7E-04 |  9.4  4.3E-02  OK|
 +----------------------+------+---------+---------+------------------+
 | H-Energy             | 0.94 | 3.4E-04 | 5.6E-03 |  5.4  5.3E-02  OK|
 +----------------------+------+---------+---------+------------------+
 | K-TurbKE             | 0.98 | 3.4E-04 | 4.8E-03 |  5.4  4.3E-02  OK|
 | E-Diss.K             | 0.95 | 2.3E-04 | 4.7E-03 |  7.2  2.2E-02  OK|
 +----------------------+------+---------+---------+------------------+

 ======================================================================
 |                        Timescale Information                       |
 ----------------------------------------------------------------------
 |       Equation       |         Type          |      Timescale      |
 +----------------------+-----------------------+---------------------+
 | U-Mom                | Auto Timescale        |     1.94500E-01     |
 | V-Mom                | Auto Timescale        |     1.94500E-01     |
 | W-Mom                | Auto Timescale        |     1.94500E-01     |
 +----------------------+-----------------------+---------------------+
 | H-Energy             | Auto Timescale        |     1.94500E-01     |
 +----------------------+-----------------------+---------------------+
 | K-TurbKE             | Auto Timescale        |     1.94500E-01     |
 | E-Diss.K             | Auto Timescale        |     1.94500E-01     |
 +----------------------+-----------------------+---------------------+

 ======================================================================
 OUTER LOOP ITERATION =  376 (   20) CPU SECONDS = 2.631E+02 (2.187E+01)
 ----------------------------------------------------------------------
 |       Equation       | Rate | RMS Res | Max Res |  Linear Solution |
 +----------------------+------+---------+---------+------------------+
 | U-Mom                | 0.87 | 1.7E-04 | 3.3E-03 |       4.5E-02  OK|
 | V-Mom                | 0.97 | 1.7E-04 | 2.9E-03 |       3.9E-02  OK|
 | W-Mom                | 0.92 | 1.7E-04 | 4.0E-03 |       5.0E-02  OK|
 | P-Mass               | 0.94 | 1.4E-05 | 3.6E-04 |  9.4  4.5E-02  OK|
 +----------------------+------+---------+---------+------------------+
 | H-Energy             | 0.93 | 3.2E-04 | 5.2E-03 |  5.4  5.3E-02  OK|
 +----------------------+------+---------+---------+------------------+
 | K-TurbKE             | 0.98 | 3.4E-04 | 4.3E-03 |  5.4  4.3E-02  OK|
 | E-Diss.K             | 0.98 | 2.2E-04 | 4.6E-03 |  7.2  2.2E-02  OK|
 +----------------------+------+---------+---------+------------------+

 ======================================================================
 OUTER LOOP ITERATION =  377 (   21) CPU SECONDS = 2.641E+02 (2.283E+01)
 ----------------------------------------------------------------------
 |       Equation       | Rate | RMS Res | Max Res |  Linear Solution |
 +----------------------+------+---------+---------+------------------+
 | U-Mom                | 0.87 | 1.5E-04 | 3.2E-03 |       5.0E-02  OK|
 | V-Mom                | 0.97 | 1.6E-04 | 2.9E-03 |       3.7E-02  OK|
 | W-Mom                | 0.92 | 1.6E-04 | 4.1E-03 |       5.2E-02  OK|
 | P-Mass               | 0.95 | 1.4E-05 | 3.4E-04 |  9.4  4.7E-02  OK|
 +----------------------+------+---------+---------+------------------+
 | H-Energy             | 0.93 | 3.0E-04 | 4.9E-03 |  5.4  5.4E-02  OK|
 +----------------------+------+---------+---------+------------------+
 | K-TurbKE             | 0.98 | 3.3E-04 | 4.3E-03 |  5.4  4.4E-02  OK|
 | E-Diss.K             | 1.01 | 2.2E-04 | 4.7E-03 |  7.2  2.3E-02  OK|
 +----------------------+------+---------+---------+------------------+

 ======================================================================
 OUTER LOOP ITERATION =  378 (   22) CPU SECONDS = 2.651E+02 (2.383E+01)
 ----------------------------------------------------------------------
 |       Equation       | Rate | RMS Res | Max Res |  Linear Solution |
 +----------------------+------+---------+---------+------------------+
 | U-Mom                | 0.88 | 1.3E-04 | 3.5E-03 |       5.5E-02  OK|
 | V-Mom                | 0.97 | 1.6E-04 | 3.1E-03 |       3.4E-02  OK|
 | W-Mom                | 0.92 | 1.4E-04 | 4.1E-03 |       5.4E-02  OK|
 | P-Mass               | 0.96 | 1.3E-05 | 3.1E-04 |  9.4  4.9E-02  OK|
 +----------------------+------+---------+---------+------------------+
 | H-Energy             | 0.92 | 2.7E-04 | 4.5E-03 |  5.4  5.5E-02  OK|
 +----------------------+------+---------+---------+------------------+
 | K-TurbKE             | 0.97 | 3.2E-04 | 4.0E-03 |  5.4  4.5E-02  OK|
 | E-Diss.K             | 1.02 | 2.3E-04 | 5.0E-03 |  7.2  2.3E-02  OK|
 +----------------------+------+---------+---------+------------------+

 ======================================================================
 OUTER LOOP ITERATION =  379 (   23) CPU SECONDS = 2.661E+02 (2.484E+01)
 ----------------------------------------------------------------------
 |       Equation       | Rate | RMS Res | Max Res |  Linear Solution |
 +----------------------+------+---------+---------+------------------+
 | U-Mom                | 0.89 | 1.2E-04 | 3.8E-03 |       6.1E-02  OK|
 | V-Mom                | 0.96 | 1.5E-04 | 3.4E-03 |       3.2E-02  OK|
 | W-Mom                | 0.92 | 1.3E-04 | 3.9E-03 |       5.4E-02  OK|
 | P-Mass               | 0.97 | 1.3E-05 | 2.7E-04 |  9.4  5.1E-02  OK|
 +----------------------+------+---------+---------+------------------+
 | H-Energy             | 0.91 | 2.5E-04 | 4.6E-03 |  5.4  5.5E-02  OK|
 +----------------------+------+---------+---------+------------------+
 | K-TurbKE             | 0.96 | 3.1E-04 | 3.9E-03 |  5.4  4.7E-02  OK|
 | E-Diss.K             | 1.03 | 2.4E-04 | 5.7E-03 |  7.2  2.4E-02  OK|
 +----------------------+------+---------+---------+------------------+

 ======================================================================
 OUTER LOOP ITERATION =  380 (   24) CPU SECONDS = 2.671E+02 (2.585E+01)
 ----------------------------------------------------------------------
 |       Equation       | Rate | RMS Res | Max Res |  Linear Solution |
 +----------------------+------+---------+---------+------------------+
 | U-Mom                | 0.89 | 1.0E-04 | 3.8E-03 |       6.5E-02  OK|
 | V-Mom                | 0.95 | 1.4E-04 | 3.5E-03 |       3.1E-02  OK|
 | W-Mom                | 0.92 | 1.2E-04 | 3.8E-03 |       5.3E-02  OK|
 | P-Mass               | 0.97 | 1.2E-05 | 2.4E-04 |  9.4  5.2E-02  OK|
 +----------------------+------+---------+---------+------------------+
 | H-Energy             | 0.90 | 2.2E-04 | 5.1E-03 |  5.4  5.6E-02  OK|
 +----------------------+------+---------+---------+------------------+
 | K-TurbKE             | 0.96 | 3.0E-04 | 3.7E-03 |  5.4  4.8E-02  OK|
 | E-Diss.K             | 1.03 | 2.4E-04 | 6.3E-03 |  7.2  2.3E-02  OK|
 +----------------------+------+---------+---------+------------------+

 ======================================================================
 |                        Timescale Information                       |
 ----------------------------------------------------------------------
 |       Equation       |         Type          |      Timescale      |
 +----------------------+-----------------------+---------------------+
 | U-Mom                | Auto Timescale        |     1.93987E-01     |
 | V-Mom                | Auto Timescale        |     1.93987E-01     |
 | W-Mom                | Auto Timescale        |     1.93987E-01     |
 +----------------------+-----------------------+---------------------+
 | H-Energy             | Auto Timescale        |     1.93987E-01     |
 +----------------------+-----------------------+---------------------+
 | K-TurbKE             | Auto Timescale        |     1.93987E-01     |
 | E-Diss.K             | Auto Timescale        |     1.93987E-01     |
 +----------------------+-----------------------+---------------------+

 ======================================================================
 OUTER LOOP ITERATION =  381 (   25) CPU SECONDS = 2.681E+02 (2.687E+01)
 ----------------------------------------------------------------------
 |       Equation       | Rate | RMS Res | Max Res |  Linear Solution |
 +----------------------+------+---------+---------+------------------+
 | U-Mom                | 0.90 | 9.4E-05 | 3.8E-03 |       6.6E-02  OK|
 | V-Mom                | 0.94 | 1.3E-04 | 3.5E-03 |       3.1E-02  OK|
 | W-Mom                | 0.92 | 1.1E-04 | 3.6E-03 |       5.2E-02  OK|
 | P-Mass               | 0.97 | 1.2E-05 | 2.0E-04 |  9.4  5.4E-02  OK|
 +----------------------+------+---------+---------+------------------+
 | H-Energy             | 0.89 | 2.0E-04 | 3.8E-03 |  5.4  5.6E-02  OK|
 +----------------------+------+---------+---------+------------------+
 | K-TurbKE             | 0.95 | 2.8E-04 | 3.3E-03 |  5.4  4.8E-02  OK|
 | E-Diss.K             | 1.02 | 2.5E-04 | 6.7E-03 |  7.2  2.3E-02  OK|
 +----------------------+------+---------+---------+------------------+

 ======================================================================
 OUTER LOOP ITERATION =  382 (   26) CPU SECONDS = 2.691E+02 (2.787E+01)
 ----------------------------------------------------------------------
 |       Equation       | Rate | RMS Res | Max Res |  Linear Solution |
 +----------------------+------+---------+---------+------------------+
 | U-Mom                | 0.91 | 8.6E-05 | 3.7E-03 |       6.4E-02  OK|
 | V-Mom                | 0.92 | 1.2E-04 | 3.4E-03 |       3.3E-02  OK|
 | W-Mom                | 0.92 | 1.0E-04 | 3.2E-03 |       5.1E-02  OK|
 | P-Mass               | 0.97 | 1.1E-05 | 1.7E-04 |  9.4  5.5E-02  OK|
 +----------------------+------+---------+---------+------------------+
 | H-Energy             | 0.89 | 1.8E-04 | 3.0E-03 |  5.4  5.7E-02  OK|
 +----------------------+------+---------+---------+------------------+
 | K-TurbKE             | 0.95 | 2.7E-04 | 2.9E-03 |  5.4  4.8E-02  OK|
 | E-Diss.K             | 1.01 | 2.5E-04 | 7.4E-03 |  7.2  2.3E-02  OK|
 +----------------------+------+---------+---------+------------------+

 ======================================================================
 OUTER LOOP ITERATION =  383 (   27) CPU SECONDS = 2.701E+02 (2.888E+01)
 ----------------------------------------------------------------------
 |       Equation       | Rate | RMS Res | Max Res |  Linear Solution |
 +----------------------+------+---------+---------+------------------+
 | U-Mom                | 0.93 | 7.9E-05 | 3.6E-03 |       5.9E-02  OK|
 | V-Mom                | 0.91 | 1.1E-04 | 3.0E-03 |       3.6E-02  OK|
 | W-Mom                | 0.92 | 9.3E-05 | 2.9E-03 |       5.1E-02  OK|
 | P-Mass               | 0.96 | 1.1E-05 | 1.4E-04 |  9.4  5.7E-02  OK|
 +----------------------+------+---------+---------+------------------+
 | H-Energy             | 0.90 | 1.6E-04 | 2.3E-03 |  5.4  5.6E-02  OK|
 +----------------------+------+---------+---------+------------------+
 | K-TurbKE             | 0.94 | 2.5E-04 | 2.6E-03 |  5.4  4.9E-02  OK|
 | E-Diss.K             | 1.00 | 2.5E-04 | 7.9E-03 |  7.2  2.3E-02  OK|
 +----------------------+------+---------+---------+------------------+

 ======================================================================
 OUTER LOOP ITERATION =  384 (   28) CPU SECONDS = 2.711E+02 (2.988E+01)
 ----------------------------------------------------------------------
 |       Equation       | Rate | RMS Res | Max Res |  Linear Solution |
 +----------------------+------+---------+---------+------------------+
 | U-Mom                | 0.94 | 7.5E-05 | 3.4E-03 |       5.2E-02  OK|
 | V-Mom                | 0.91 | 1.0E-04 | 2.6E-03 |       4.1E-02  OK|
 | W-Mom                | 0.92 | 8.6E-05 | 2.5E-03 |       5.1E-02  OK|
 | P-Mass               | 0.96 | 1.1E-05 | 1.2E-04 |  9.4  5.8E-02  OK|
 +----------------------+------+---------+---------+------------------+
 | H-Energy             | 0.90 | 1.4E-04 | 2.0E-03 |  5.4  5.7E-02  OK|
 +----------------------+------+---------+---------+------------------+
 | K-TurbKE             | 0.94 | 2.3E-04 | 2.4E-03 |  5.4  4.9E-02  OK|
 | E-Diss.K             | 0.98 | 2.5E-04 | 8.1E-03 |  7.2  2.2E-02  OK|
 +----------------------+------+---------+---------+------------------+

 ======================================================================
 OUTER LOOP ITERATION =  385 (   29) CPU SECONDS = 2.721E+02 (3.088E+01)
 ----------------------------------------------------------------------
 |       Equation       | Rate | RMS Res | Max Res |  Linear Solution |
 +----------------------+------+---------+---------+------------------+
 | U-Mom                | 0.95 | 7.1E-05 | 3.2E-03 |       4.4E-02  OK|
 | V-Mom                | 0.90 | 9.2E-05 | 2.4E-03 |       4.6E-02  OK|
 | W-Mom                | 0.92 | 7.9E-05 | 2.2E-03 |       5.2E-02  OK|
 | P-Mass               | 0.96 | 1.0E-05 | 1.2E-04 |  9.4  5.9E-02  OK|
 +----------------------+------+---------+---------+------------------+
 | H-Energy             | 0.91 | 1.3E-04 | 1.8E-03 |  5.4  5.8E-02  OK|
 +----------------------+------+---------+---------+------------------+
 | K-TurbKE             | 0.94 | 2.2E-04 | 2.3E-03 |  5.4  4.9E-02  OK|
 | E-Diss.K             | 0.97 | 2.4E-04 | 8.0E-03 |  7.2  2.2E-02  OK|
 +----------------------+------+---------+---------+------------------+

 ======================================================================
 |                        Timescale Information                       |
 ----------------------------------------------------------------------
 |       Equation       |         Type          |      Timescale      |
 +----------------------+-----------------------+---------------------+
 | U-Mom                | Auto Timescale        |     1.93498E-01     |
 | V-Mom                | Auto Timescale        |     1.93498E-01     |
 | W-Mom                | Auto Timescale        |     1.93498E-01     |
 +----------------------+-----------------------+---------------------+
 | H-Energy             | Auto Timescale        |     1.93498E-01     |
 +----------------------+-----------------------+---------------------+
 | K-TurbKE             | Auto Timescale        |     1.93498E-01     |
 | E-Diss.K             | Auto Timescale        |     1.93498E-01     |
 +----------------------+-----------------------+---------------------+

 ======================================================================
 OUTER LOOP ITERATION =  386 (   30) CPU SECONDS = 2.731E+02 (3.188E+01)
 ----------------------------------------------------------------------
 |       Equation       | Rate | RMS Res | Max Res |  Linear Solution |
 +----------------------+------+---------+---------+------------------+
 | U-Mom                | 0.96 | 6.8E-05 | 3.0E-03 |       3.7E-02  OK|
 | V-Mom                | 0.89 | 8.2E-05 | 2.3E-03 |       5.3E-02  OK|
 | W-Mom                | 0.92 | 7.3E-05 | 2.0E-03 |       5.2E-02  OK|
 | P-Mass               | 0.95 | 9.6E-06 | 1.1E-04 |  9.4  6.1E-02  OK|
 +----------------------+------+---------+---------+------------------+
 | H-Energy             | 0.92 | 1.2E-04 | 1.7E-03 |  5.4  5.8E-02  OK|
 +----------------------+------+---------+---------+------------------+
 | K-TurbKE             | 0.93 | 2.1E-04 | 2.1E-03 |  5.4  4.8E-02  OK|
 | E-Diss.K             | 0.96 | 2.3E-04 | 7.5E-03 |  7.2  2.2E-02  OK|
 +----------------------+------+---------+---------+------------------+

 ======================================================================
 OUTER LOOP ITERATION =  387 (   31) CPU SECONDS = 2.741E+02 (3.287E+01)
 ----------------------------------------------------------------------
 |       Equation       | Rate | RMS Res | Max Res |  Linear Solution |
 +----------------------+------+---------+---------+------------------+
 | U-Mom                | 0.96 | 6.5E-05 | 2.8E-03 |       3.2E-02  OK|
 | V-Mom                | 0.89 | 7.3E-05 | 2.1E-03 |       5.9E-02  OK|
 | W-Mom                | 0.92 | 6.7E-05 | 1.8E-03 |       5.3E-02  OK|
 | P-Mass               | 0.95 | 9.1E-06 | 1.1E-04 |  9.4  6.3E-02  OK|
 +----------------------+------+---------+---------+------------------+
 | H-Energy             | 0.93 | 1.1E-04 | 1.5E-03 |  5.4  6.0E-02  OK|
 +----------------------+------+---------+---------+------------------+
 | K-TurbKE             | 0.93 | 1.9E-04 | 1.9E-03 |  5.4  4.8E-02  OK|
 | E-Diss.K             | 0.95 | 2.2E-04 | 7.0E-03 |  7.2  2.2E-02  OK|
 +----------------------+------+---------+---------+------------------+

 ======================================================================
 OUTER LOOP ITERATION =  388 (   32) CPU SECONDS = 2.751E+02 (3.388E+01)
 ----------------------------------------------------------------------
 |       Equation       | Rate | RMS Res | Max Res |  Linear Solution |
 +----------------------+------+---------+---------+------------------+
 | U-Mom                | 0.96 | 6.2E-05 | 2.7E-03 |       3.0E-02  OK|
 | V-Mom                | 0.90 | 6.6E-05 | 2.0E-03 |       6.4E-02  OK|
 | W-Mom                | 0.92 | 6.1E-05 | 1.6E-03 |       5.4E-02  OK|
 | P-Mass               | 0.95 | 8.6E-06 | 1.1E-04 |  9.4  6.5E-02  OK|
 +----------------------+------+---------+---------+------------------+
 | H-Energy             | 0.94 | 1.1E-04 | 1.2E-03 |  5.4  6.1E-02  OK|
 +----------------------+------+---------+---------+------------------+
 | K-TurbKE             | 0.93 | 1.8E-04 | 1.7E-03 |  5.4  4.7E-02  OK|
 | E-Diss.K             | 0.94 | 2.0E-04 | 6.5E-03 |  7.2  2.1E-02  OK|
 +----------------------+------+---------+---------+------------------+

 ======================================================================
 OUTER LOOP ITERATION =  389 (   33) CPU SECONDS = 2.762E+02 (3.489E+01)
 ----------------------------------------------------------------------
 |       Equation       | Rate | RMS Res | Max Res |  Linear Solution |
 +----------------------+------+---------+---------+------------------+
 | U-Mom                | 0.95 | 5.9E-05 | 2.6E-03 |       3.2E-02  OK|
 | V-Mom                | 0.90 | 5.9E-05 | 1.9E-03 |       6.7E-02  OK|
 | W-Mom                | 0.92 | 5.7E-05 | 1.4E-03 |       5.4E-02  OK|
 | P-Mass               | 0.95 | 8.1E-06 | 9.8E-05 |  9.4  6.7E-02  OK|
 +----------------------+------+---------+---------+------------------+
 | H-Energy             | 0.95 | 1.0E-04 | 1.3E-03 |  5.4  6.2E-02  OK|
 +----------------------+------+---------+---------+------------------+
 | K-TurbKE             | 0.93 | 1.7E-04 | 1.5E-03 |  5.4  4.6E-02  OK|
 | E-Diss.K             | 0.93 | 1.9E-04 | 6.1E-03 |  7.2  2.1E-02  OK|
 +----------------------+------+---------+---------+------------------+

 ======================================================================
 OUTER LOOP ITERATION =  390 (   34) CPU SECONDS = 2.772E+02 (3.589E+01)
 ----------------------------------------------------------------------
 |       Equation       | Rate | RMS Res | Max Res |  Linear Solution |
 +----------------------+------+---------+---------+------------------+
 | U-Mom                | 0.95 | 5.6E-05 | 2.4E-03 |       3.5E-02  OK|
 | V-Mom                | 0.91 | 5.4E-05 | 1.8E-03 |       6.6E-02  OK|
 | W-Mom                | 0.92 | 5.2E-05 | 1.2E-03 |       5.5E-02  OK|
 | P-Mass               | 0.95 | 7.7E-06 | 9.2E-05 |  9.4  6.9E-02  OK|
 +----------------------+------+---------+---------+------------------+
 | H-Energy             | 0.96 | 9.7E-05 | 1.3E-03 |  5.4  6.4E-02  OK|
 +----------------------+------+---------+---------+------------------+
 | K-TurbKE             | 0.93 | 1.5E-04 | 1.3E-03 |  5.4  4.5E-02  OK|
 | E-Diss.K             | 0.93 | 1.7E-04 | 5.6E-03 |  7.2  2.1E-02  OK|
 +----------------------+------+---------+---------+------------------+
                   
 CFD Solver finished: Wed Dec  5 15:38:45 2018
 CFD Solver wall clock seconds: 3.3764E+01

 ======================================================================
              Termination and Interrupt Condition Summary
 ======================================================================
    
 CFD Solver: All target criteria reached
   (Equation residuals)

 ======================================================================
              Boundary Flow and Total Source Term Summary
 ======================================================================

 +--------------------------------------------------------------------+
 |                               U-Mom                                |
 +--------------------------------------------------------------------+
 Boundary         : Default Domain Default                  2.8281E+04
 Boundary         : in1                                     4.3019E-05
 Boundary         : in2                                    -2.8142E+04
 Boundary         : out                                    -1.6125E+02
                                                           -----------
 Domain Imbalance :                                        -2.2542E+01

 +--------------------------------------------------------------------+
 |                               V-Mom                                |
 +--------------------------------------------------------------------+
 Boundary         : Default Domain Default                 -9.0948E+03
 Boundary         : in1                                     4.5425E+04
 Boundary         : in2                                    -3.6241E+04
 Boundary         : out                                    -6.2664E+01
                                                           -----------
 Domain Imbalance :                                         2.6242E+01

 +--------------------------------------------------------------------+
 |                               W-Mom                                |
 +--------------------------------------------------------------------+
 Boundary         : Default Domain Default                 -5.6752E+03
 Boundary         : in1                                    -1.4474E-05
 Boundary         : in2                                     1.1771E-03
 Boundary         : out                                     5.6686E+03
                                                           -----------
 Domain Imbalance :                                        -6.6504E+00

 +--------------------------------------------------------------------+
 |                               P-Mass                               |
 +--------------------------------------------------------------------+
 Boundary         : in1                                     1.0001E+03
 Boundary         : in2                                     1.0001E+03
 Boundary         : out                                    -2.0001E+03
                                                           -----------
 Domain Imbalance :                                         1.0876E-01

 +--------------------------------------------------------------------+
 |                              H-Energy                              |
 +--------------------------------------------------------------------+
 Boundary         : in1                                     7.0469E+07
 Boundary         : in2                                    -5.4995E+07
 Boundary         : out                                    -1.5646E+07
                                                           -----------
 Domain Imbalance :                                        -1.7184E+05


 +--------------------------------------------------------------------+
 |                     Normalised Imbalance Summary                   |
 +--------------------------------------------------------------------+
 |       Equation       |      Maximum Flow     |     Imbalance (%)   |
 +--------------------------------------------------------------------+
 | U-Mom                |       4.5425E+04      |       -0.0496       |
 | V-Mom                |       4.5425E+04      |        0.0578       |
 | W-Mom                |       4.5425E+04      |       -0.0146       |
 | P-Mass               |       2.0001E+03      |        0.0054       |
 +----------------------+-----------------------+---------------------+
 | H-Energy             |       7.0469E+07      |       -0.2438       |
 +----------------------+-----------------------+---------------------+

 ======================================================================
                     Wall Force and Moment Summary
 ======================================================================
                                                                          
 Notes:
 1. Pressure integrals exclude the reference pressure.  To include
    it, set the expert parameter 'include pref in forces = t'.


 +--------------------------------------------------------------------+
 |                      Pressure Force On Walls                       |
 +--------------------------------------------------------------------+
                                    X-Comp.      Y-Comp.      Z-Comp.

 Domain Group: Default Domain

 Default Domain Default          -2.8325E+04   9.0333E+03   5.7040E+03
                                  -----------  -----------  -----------
 Domain Group Totals :           -2.8325E+04   9.0333E+03   5.7040E+03


 +--------------------------------------------------------------------+
 |                       Viscous Force On Walls                       |
 +--------------------------------------------------------------------+
                                    X-Comp.      Y-Comp.      Z-Comp.

 Domain Group: Default Domain

 Default Domain Default           4.3998E+01   6.1611E+01  -2.7576E+01
                                  -----------  -----------  -----------
 Domain Group Totals :            4.3998E+01   6.1611E+01  -2.7576E+01


 +--------------------------------------------------------------------+
 |                      Pressure Moment On Walls                      |
 +--------------------------------------------------------------------+
                                    X-Comp.      Y-Comp.      Z-Comp.

 Domain Group: Default Domain

 Default Domain Default          -8.6925E+03  -2.6439E+04  -8.2427E+04
                                  -----------  -----------  -----------
 Domain Group Totals :           -8.6925E+03  -2.6439E+04  -8.2427E+04


 +--------------------------------------------------------------------+
 |                       Viscous Moment On Walls                      |
 +--------------------------------------------------------------------+
                                    X-Comp.      Y-Comp.      Z-Comp.

 Domain Group: Default Domain

 Default Domain Default           8.9371E+00   4.2098E+01  -5.0175E+03
                                  -----------  -----------  -----------
 Domain Group Totals :            8.9371E+00   4.2098E+01  -5.0175E+03


 +--------------------------------------------------------------------+
 |                   Locations of Maximum Residuals                   |
 +--------------------------------------------------------------------+
 |       Equation       |      Domain Name      |     Node Number     |
 +--------------------------------------------------------------------+
 | U-Mom                | Default Domain        |          23316      |
 | V-Mom                | Default Domain        |          24679      |
 | W-Mom                | Default Domain        |          24785      |
 | P-Mass               | Default Domain        |          26702      |
 +----------------------+-----------------------+---------------------+
 | H-Energy             | Default Domain        |          24734      |
 +----------------------+-----------------------+---------------------+
 | K-TurbKE             | Default Domain        |           1901      |
 | E-Diss.K             | Default Domain        |          26238      |
 +----------------------+-----------------------+---------------------+

 ======================================================================
 |                     False Transient Information                    |
 +--------------------------------------------------------------------+
 |       Equation       |         Type          | Elapsed Pseudo-Time |
 +--------------------------------------------------------------------+
 | U-Mom                | Auto Timescale        |     6.50422E+00     |
 | V-Mom                | Auto Timescale        |     6.50422E+00     |
 | W-Mom                | Auto Timescale        |     6.50422E+00     |
 +----------------------+-----------------------+---------------------+
 | H-Energy             | Auto Timescale        |     6.50422E+00     |
 +----------------------+-----------------------+---------------------+
 | K-TurbKE             | Auto Timescale        |     6.50422E+00     |
 | E-Diss.K             | Auto Timescale        |     6.50422E+00     |
 +----------------------+-----------------------+---------------------+

 +--------------------------------------------------------------------+
 |                     Average Scale Information                      |
 +--------------------------------------------------------------------+

 Domain Name : Default Domain
     Global Length                                         = 3.2201E+00
     Minimum Extent                                        = 4.0000E+00
     Maximum Extent                                        = 5.0615E+00
     Density                                               = 9.9700E+02
     Dynamic Viscosity                                     = 8.8990E-04
     Velocity                                              = 5.2349E+00
     Advection Time                                        = 6.1512E-01
     Reynolds Number                                       = 1.8886E+07
     Thermal Conductivity                                  = 6.0690E-01
     Specific Heat Capacity at Constant Pressure           = 4.1817E+03
     Prandtl Number                                        = 6.1316E+00
     Temperature Range                                     = 3.0031E+01

 +--------------------------------------------------------------------+
 |                     Variable Range Information                     |
 +--------------------------------------------------------------------+

 Domain Name : Default Domain
 +--------------------------------------------------------------------+
 |      Variable Name                         |    min    |    max    |
 +--------------------------------------------------------------------+
 | Density                                    |  9.97E+02 |  9.97E+02 |
 | Specific Heat Capacity at Constant Pressure|  4.18E+03 |  4.18E+03 |
 | Dynamic Viscosity                          |  8.90E-04 |  8.90E-04 |
 | Thermal Conductivity                       |  6.07E-01 |  6.07E-01 |
 | Static Entropy                             | -1.89E+02 |  2.30E+02 |
 | Velocity u                                 | -6.29E+00 |  6.46E+00 |
 | Velocity v                                 | -6.69E+00 |  6.49E+00 |
 | Velocity w                                 | -4.16E+00 |  1.79E+00 |
 | Pressure                                   | -6.53E+03 |  5.83E+04 |
 | Turbulence Kinetic Energy                  |  8.04E-05 |  2.66E+00 |
 | Turbulence Eddy Dissipation                |  1.73E-04 |  1.18E+02 |
 | Eddy Viscosity                             |  2.25E-03 |  2.65E+02 |
 | Temperature                                |  2.85E+02 |  3.15E+02 |
 | Static Enthalpy                            | -5.51E+04 |  7.05E+04 |
 +--------------------------------------------------------------------+

 +--------------------------------------------------------------------+
 |               CPU Requirements of Numerical Solution               |
 +--------------------------------------------------------------------+

 Subsystem Name                  Discretization       Linear Solution
                                (secs.   %total)     (secs.   %total) 
 ----------------------------------------------------------------------
 Momentum and Mass              1.20E+01  30.3 %     3.01E+00   7.6 %
 Heat Transfer                  4.03E+00  10.1 %     1.36E+00   3.4 %
 TurbKE and Diss.K              6.24E+00  15.7 %     2.93E+00   7.4 %
                                -------- -------     --------  ------
 Subsystem Summary              2.23E+01  56.2 %     7.30E+00  18.4 %

 File Reading                   4.20E-02    0.1 %
 Variable Updates               3.97E+00   10.0 %
 File Writing                   3.94E-01    1.0 %
 Miscellaneous                  5.68E+00   14.3 %
                                --------
 Total                          3.97E+01

 +--------------------------------------------------------------------+
 |                   Job Information at End of Run                    |
 +--------------------------------------------------------------------+

 Host computer:  ENPC-LAB137 (PID:5732)

 Job finished:   Wed Dec  5 15:38:48 2018

 Total wall clock time: 3.969E+01 seconds
             or: (          0:         0:         0:    39.685 )
                 (       Days:     Hours:   Minutes:   Seconds )

End of solution stage.

 +--------------------------------------------------------------------+
 | The results from this run of the ANSYS CFX Solver have been        |
 | written to                                                         |
 | H:/dos/CFD/CW/CFD-Static-Mixer/StaticMixerDX_pending/dp10_CFX_Sol- |
 | ution/Fluid Flow CFX_008.res                                       |
 +--------------------------------------------------------------------+


 +--------------------------------------------------------------------+
 | For CFX runs launched from Workbench, the final locations of       |
 | directories and files generated may differ from those shown.       |
 +--------------------------------------------------------------------+


This run of the ANSYS CFX Solver has finished.
