 This run of the CFX Release 19.1 Solver started at 11:31:44 on 10 Dec
 2018 by user jc2182 on ENPC-LAB121 (intel_xeon64.sse2_winnt) using the
 command:
 
  "C:\Program Files\ANSYS Inc\v191\CFX\bin\perllib\cfx5solve.pl" -batch
    -ccl runInput.ccl -fullname "Fluid Flow CFX_012"
 
 Release 19.1
 
  Point Releases and Patches installed:
  ANSYS, Inc. Products Release 19.1
  SpaceClaim Release 19.1
  Autodyn Release 19.1
  LS-DYNA Release 19.1
  CFD-Post only Release 19.1
  CFX (includes CFD-Post) Release 19.1
  Chemkin Release 19.1
  EnSight Release 19.1
  FENSAP-ICE Release 19.1
  Fluent (includes CFD-Post) Release 19.1
  Forte Release 19.1
  Polyflow (includes CFD-Post) Release 19.1
  TurboGrid Release 19.1
  ICEM CFD Release 19.1
  Customization Files for User Programmable Features Release 19.1
  Mechanical Products Release 19.1
  Icepak (includes CFD-Post) Release 19.1
  Remote Solve Manager Standalone Services Release 19.1
  ACIS Geometry Interface Release 19.1
  Catia, Version 5 Geometry Interface Release 19.1
  NX Geometry Interface Release 19.1
  Parasolid Geometry Interface  Release 19.1
  ANSYS, Inc. License Manager Release 19.1
 
 Setting up CFX Solver run ...
 
 
 +--------------------------------------------------------------------+
 |                                                                    |
 |                    CFX Command Language for Run                    |
 |                                                                    |
 +--------------------------------------------------------------------+
 
 LIBRARY:
   CEL:
     EXPRESSIONS:
       inMassFlow = 1500 [kg s^-1]
     END
   END
   MATERIAL: Water
     Material Description = Water (liquid)
     Material Group = Water Data, Constant Property Liquids
     Option = Pure Substance
     Thermodynamic State = Liquid
     PROPERTIES:
       Option = General Material
       EQUATION OF STATE:
         Density = 997.0 [kg m^-3]
         Molar Mass = 18.02 [kg kmol^-1]
         Option = Value
       END
       SPECIFIC HEAT CAPACITY:
         Option = Value
         Specific Heat Capacity = 4181.7 [J kg^-1 K^-1]
         Specific Heat Type = Constant Pressure
       END
       REFERENCE STATE:
         Option = Specified Point
         Reference Pressure = 1 [atm]
         Reference Specific Enthalpy = 0.0 [J/kg]
         Reference Specific Entropy = 0.0 [J/kg/K]
         Reference Temperature = 25 [C]
       END
       DYNAMIC VISCOSITY:
         Dynamic Viscosity = 8.899E-4 [kg m^-1 s^-1]
         Option = Value
       END
       THERMAL CONDUCTIVITY:
         Option = Value
         Thermal Conductivity = 0.6069 [W m^-1 K^-1]
       END
       ABSORPTION COEFFICIENT:
         Absorption Coefficient = 1.0 [m^-1]
         Option = Value
       END
       SCATTERING COEFFICIENT:
         Option = Value
         Scattering Coefficient = 0.0 [m^-1]
       END
       REFRACTIVE INDEX:
         Option = Value
         Refractive Index = 1.0 [m m^-1]
       END
       THERMAL EXPANSIVITY:
         Option = Value
         Thermal Expansivity = 2.57E-04 [K^-1]
       END
     END
   END
 END
 FLOW: Flow Analysis 1
   SOLUTION UNITS:
     Angle Units = [rad]
     Length Units = [m]
     Mass Units = [kg]
     Solid Angle Units = [sr]
     Temperature Units = [K]
     Time Units = [s]
   END
   ANALYSIS TYPE:
     Option = Steady State
     EXTERNAL SOLVER COUPLING:
       Option = None
     END
   END
   DOMAIN: Default Domain
     Coord Frame = Coord 0
     Domain Type = Fluid
     Location = B17
     BOUNDARY: Default Domain Default
       Boundary Type = WALL
       Location = F12.17,F14.17,F16.17,F19.17,F20.17,F21.17
       BOUNDARY CONDITIONS:
         HEAT TRANSFER:
           Option = Adiabatic
         END
         MASS AND MOMENTUM:
           Option = No Slip Wall
         END
         WALL ROUGHNESS:
           Option = Smooth Wall
         END
       END
     END
     BOUNDARY: in1
       Boundary Type = INLET
       Location = in1
       BOUNDARY CONDITIONS:
         FLOW DIRECTION:
           Option = Normal to Boundary Condition
         END
         FLOW REGIME:
           Option = Subsonic
         END
         HEAT TRANSFER:
           Option = Static Temperature
           Static Temperature = 315 [K]
         END
         MASS AND MOMENTUM:
           Mass Flow Rate = inMassFlow
           Mass Flow Rate Area = As Specified
           Option = Mass Flow Rate
         END
         TURBULENCE:
           Option = Medium Intensity and Eddy Viscosity Ratio
         END
       END
     END
     BOUNDARY: in2
       Boundary Type = INLET
       Location = in2
       BOUNDARY CONDITIONS:
         FLOW DIRECTION:
           Option = Normal to Boundary Condition
         END
         FLOW REGIME:
           Option = Subsonic
         END
         HEAT TRANSFER:
           Option = Static Temperature
           Static Temperature = 285 [K]
         END
         MASS AND MOMENTUM:
           Mass Flow Rate = inMassFlow
           Mass Flow Rate Area = As Specified
           Option = Mass Flow Rate
         END
         TURBULENCE:
           Option = Medium Intensity and Eddy Viscosity Ratio
         END
       END
     END
     BOUNDARY: out
       Boundary Type = OUTLET
       Location = out
       BOUNDARY CONDITIONS:
         FLOW REGIME:
           Option = Subsonic
         END
         MASS AND MOMENTUM:
           Option = Static Pressure
           Relative Pressure = 0 [Pa]
         END
       END
     END
     DOMAIN MODELS:
       BUOYANCY MODEL:
         Option = Non Buoyant
       END
       DOMAIN MOTION:
         Option = Stationary
       END
       MESH DEFORMATION:
         Option = None
       END
       REFERENCE PRESSURE:
         Reference Pressure = 1 [atm]
       END
     END
     FLUID DEFINITION: Fluid 1
       Material = Water
       Option = Material Library
       MORPHOLOGY:
         Option = Continuous Fluid
       END
     END
     FLUID MODELS:
       COMBUSTION MODEL:
         Option = None
       END
       HEAT TRANSFER MODEL:
         Option = Thermal Energy
       END
       THERMAL RADIATION MODEL:
         Option = None
       END
       TURBULENCE MODEL:
         Option = k epsilon
       END
       TURBULENT WALL FUNCTIONS:
         Option = Scalable
       END
     END
   END
   OUTPUT CONTROL:
     RESULTS:
       File Compression Level = Default
       Option = Standard
     END
   END
   SOLVER CONTROL:
     Turbulence Numerics = High Resolution
     ADVECTION SCHEME:
       Option = High Resolution
     END
     CONVERGENCE CONTROL:
       Length Scale Option = Conservative
       Maximum Number of Iterations = 100
       Minimum Number of Iterations = 5
       Timescale Control = Auto Timescale
       Timescale Factor = 1.0
     END
     CONVERGENCE CRITERIA:
       Residual Target = 1.E-4
       Residual Type = RMS
     END
     DYNAMIC MODEL CONTROL:
       Global Dynamic Model Control = On
     END
   END
 END
 COMMAND FILE:
   Version = 19.1
   Results Version = 19.1
 END
 PARAMETERIZATION:
   INPUT FIELD: inMassFlow
     Expression Name = inMassFlow
     Method = Expression
   END
 END
 SIMULATION CONTROL:
   EXECUTION CONTROL:
     EXECUTABLE SELECTION:
       Double Precision = No
       Large Problem = No
     END
     INTERPOLATOR STEP CONTROL:
       Runtime Priority = Standard
       MEMORY CONTROL:
         Memory Allocation Factor = 1.0
       END
     END
     PARALLEL HOST LIBRARY:
       HOST DEFINITION: enpclab121
         Remote Host Name = ENPC-LAB121
         Host Architecture String = winnt-amd64
         Installation Root = C:\Program Files\ANSYS Inc\v%v\CFX
       END
     END
     PARTITIONER STEP CONTROL:
       Multidomain Option = Automatic
       Runtime Priority = Standard
       MEMORY CONTROL:
         Memory Allocation Factor = 1.0
       END
       PARTITION SMOOTHING:
         Maximum Partition Smoothing Sweeps = 100
         Option = Smooth
       END
       PARTITIONING TYPE:
         MeTiS Type = k-way
         Option = MeTiS
         Partition Size Rule = Automatic
       END
     END
     RUN DEFINITION:
       Run Mode = Full
       Solver Input File = Fluid Flow CFX.def
       Solver Results File = D:/CFD \
         BackUps/CFD-Static-Mixer/StaticMixerDX_pending/dp13_CFX_Solution/Flui\
         d Flow CFX_012.res
       INITIAL VALUES SPECIFICATION:
         INITIAL VALUES CONTROL:
           Use Mesh From = Solver Input File
           Continue History From = Workbench Initial Values
         END
         INITIAL VALUES: Workbench Initial Values
           Option = Results File
           File Name = Fluid Flow CFX_010.res
         END
       END
     END
     SOLVER STEP CONTROL:
       Runtime Priority = Standard
       MEMORY CONTROL:
         Memory Allocation Factor = 1.0
       END
       PARALLEL ENVIRONMENT:
         Number of Processes = 1
         Start Method = Serial
       END
     END
   END
 END
 
 
 +--------------------------------------------------------------------+
 |                                                                    |
 |                  Interpolation of Initial Values                   |
 |                                                                    |
 +--------------------------------------------------------------------+
 
 


 +--------------------------------------------------------------------+
 |                                                                    |
 |                    ANSYS(R) CFX(R) Interpolator                    |
 |                                                                    |
 | Release 19.1                                                       |
 | Build 19.1 2018-04-17T13:27:50.069000                              |
 | Tue Apr 17 15:02:11 GMTDT 2018                                     |
 |                                                                    |
 |                        Executable Attributes                       |
 |                                                                    |
 |           single-64bit-int32-archfort-optimised-std-lcomp          |
 |                                                                    |
 | (C) 1996-2018 ANSYS, Inc.                                          |
 |                                                                    |
 | All rights reserved. Unauthorized use, distribution or duplication |
 | is prohibited. This product is subject to U.S. laws governing      |
 | export and re-export. For full Legal Notice, see documentation.    |
 +--------------------------------------------------------------------+




 +--------------------------------------------------------------------+
 |                  Job Information at Start of Run                   |
 +--------------------------------------------------------------------+

 Run mode:       serial run

 Host computer:  ENPC-LAB121 (PID:2924)

 Job started:    Mon Dec 10 11:31:45 2018


 +--------------------------------------------------------------------+
 |        Memory Allocated for Run  (Actual usage may be less)        |
 +--------------------------------------------------------------------+

           | Real       | Integer    | Character | Logical  | Double
 ----------+------------+------------+-----------+----------+----------
 Mwords    |       1.64 |       1.96 |      0.20 |     0.01 |     0.08
 Mbytes    |       6.26 |       7.49 |      0.19 |     0.04 |     0.64
 ----------+------------+------------+-----------+----------+----------


 +--------------------------------------------------------------------+
 |                  Host Memory Information (Mbytes)                  |
 +--------------------------------------------------------------------+
 |          Host           |     System     |   Allocated    |   %    |
 +-------------------------+----------------+----------------+--------+
 | ENPC-LAB121             |     16220.89   |        14.62   |   0.09 |
 +-------------------------+----------------+----------------+--------+

 ======================================================================
               Interpolating Onto Domain "Default Domain"
 ======================================================================

 Total Number of Nodes in the Target Domain              =        27951
 Bounding Box Volume of the Target Mesh                  =  9.60000E+01


 Checking all source domains from the source file:
   Target mesh is different from domain "Default Domain".

 Searching for Candidate Source Domains:
   Domain "Default Domain"
     Number of Mapped Nodes                     =        26260 ( 94.0%)
     Bounding Box Overlap Volume                =  9.60000E+01 (100.0%)
   Setting Up Unmapped Nodes:
     Number of Unmapped Nodes                   =         1691 (  6.0%)

 Start interpolation of variables: 
   Source Domain Name                                    Mapped Nodes
   Default Domain                                        26260 ( 94.0%)

 +--------------------------------------------------------------------+
 |                     Variable Range Information                     |
 +--------------------------------------------------------------------+
 +--------------------------------------------------------------------+
 |      Variable Name                         |    min    |    max    |
 +--------------------------------------------------------------------+
 | Thermal Conductivity                       |  6.07E-01 |  6.07E-01 |
 | Courant Number                             |  1.08E+00 |  5.56E+01 |
 | Density                                    |  9.97E+02 |  9.97E+02 |
 | Static Enthalpy                            | -5.50E+04 |  7.05E+04 |
 | Static Entropy                             | -1.89E+02 |  2.30E+02 |
 | Pressure                                   | -8.77E+03 |  7.13E+04 |
 | Specific Heat Capacity at Constant Pressure|  4.18E+03 |  4.18E+03 |
 | Specific Heat Capacity at Constant Volume  |  4.18E+03 |  4.18E+03 |
 | Turbulence Eddy Dissipation                |  3.06E-04 |  7.63E+01 |
 | Turbulence Eddy Frequency                  |  6.49E+00 |  1.70E+03 |
 | Temperature                                |  2.85E+02 |  3.15E+02 |
 | Turbulence Kinetic Energy                  |  1.04E-04 |  3.29E+00 |
 | Velocity                                   |  2.88E-01 |  7.40E+00 |
 | Dynamic Viscosity                          |  8.90E-04 |  8.90E-04 |
 | Eddy Viscosity                             |  1.33E-03 |  2.99E+02 |
 +--------------------------------------------------------------------+

 +--------------------------------------------------------------------+
 |                 CPU Requirements of Interpolation                  |
 +--------------------------------------------------------------------+

 Interpolation Step              Time    Percentage
                                (secs.   %total)
 ----------------------------------------------------------------------
 Tree Setup                     3.07E-01    7.7 %
 Interpolation                  1.77E+00   44.2 %
 Unmatched Nodes                9.10E-02    2.3 %
 Miscellaneous                  1.83E+00   45.8 %
                                --------
 Total                          3.99E+00

 +--------------------------------------------------------------------+
 |                   Job Information at End of Run                    |
 +--------------------------------------------------------------------+

 Host computer:  ENPC-LAB121 (PID:2924)

 Job finished:   Mon Dec 10 11:31:49 2018

 Total wall clock time: 3.987E+00 seconds
             or: (          0:         0:         0:     3.987 )
                 (       Days:     Hours:   Minutes:   Seconds )

 
 +--------------------------------------------------------------------+
 |                                                                    |
 |                               Solver                               |
 |                                                                    |
 +--------------------------------------------------------------------+
 



 +--------------------------------------------------------------------+
 |                                                                    |
 |                       ANSYS(R) CFX(R) Solver                       |
 |                                                                    |
 | Release 19.1                                                       |
 | Build 19.1 2018-04-17T13:27:50.069000                              |
 | Tue Apr 17 15:02:11 GMTDT 2018                                     |
 |                                                                    |
 |                        Executable Attributes                       |
 |                                                                    |
 |           single-64bit-int32-archfort-optimised-std-lcomp          |
 |                                                                    |
 | (C) 1996-2018 ANSYS, Inc.                                          |
 |                                                                    |
 | All rights reserved. Unauthorized use, distribution or duplication |
 | is prohibited. This product is subject to U.S. laws governing      |
 | export and re-export. For full Legal Notice, see documentation.    |
 +--------------------------------------------------------------------+




 +--------------------------------------------------------------------+
 |                  Job Information at Start of Run                   |
 +--------------------------------------------------------------------+

 Run mode:       serial run

 Host computer:  ENPC-LAB121 (PID:12652)

 Job started:    Mon Dec 10 11:31:55 2018

 +--------------------------------------------------------------------+
 |                        License Information                         |
 +--------------------------------------------------------------------+
 
 License Cap:    ANSYS CFX Solver (Max 128K Nodes)
 License ID:     VIGO_campus_bath_ac_uk-SYSTEM-1456-2439538


 +--------------------------------------------------------------------+
 |        Memory Allocated for Run  (Actual usage may be less)        |
 +--------------------------------------------------------------------+

           | Real       | Integer    | Character | Logical  | Double
 ----------+------------+------------+-----------+----------+----------
 Mwords    |      17.52 |       4.88 |      7.26 |     0.12 |     0.91
 Mbytes    |      66.84 |      18.60 |      6.93 |     0.46 |     6.93
 ----------+------------+------------+-----------+----------+----------


 +--------------------------------------------------------------------+
 |                  Host Memory Information (Mbytes)                  |
 +--------------------------------------------------------------------+
 |          Host           |     System     |   Allocated    |   %    |
 +-------------------------+----------------+----------------+--------+
 | ENPC-LAB121             |     16220.89   |        99.75   |   0.61 |
 +-------------------------+----------------+----------------+--------+


 +--------------------------------------------------------------------+
 |                     ****** Notice ******                           |
 | The Wall Heat Transfer Coefficient written to the results file for |
 | any turbulent phase with heat transfer is based on the turbulent   |
 | wall function coefficient. It is consistent with the Wall Heat Flux|
 | the wall temperature, and the Wall Adjacent Temperature            |
 | (near-wall temperature).  If you would like it to be based on a    |
 | user-specified bulk temperature instead, please set the expert     |
 | parameter "tbulk for htc = <value>".                               |
 +--------------------------------------------------------------------+

 +--------------------------------------------------------------------+
 |                      Topology Simplification                       |
 +--------------------------------------------------------------------+

 +--------------------------------------------------------------------+
 |                       ****** Warning ******                        |
 |                                                                    |
 | Topology simplification is activated with the following            |
 | restrictions:                                                      |
 |                                                                    |
 | - Mesh regions referenced only within User Fortran and NOT         |
 |   in the command file will cause the solver to stop.               |
 | - The solver will stop during any "Edit Run in Progress" step      |
 |   if new 2D regions are referenced.                                |
 +--------------------------------------------------------------------+

 +--------------------------------------------------------------------+
 |                          Mesh Statistics                           |
 +--------------------------------------------------------------------+
 | Domain Name          | Orthog. Angle | Exp. Factor  | Aspect Ratio |
 +----------------------+---------------+--------------+--------------+
 |                      | Minimum [deg] |   Maximum    |    Maximum   |
 +----------------------+---------------+--------------+--------------+
 | Default Domain       |       30.8 ok |        13 ok |        28 OK |
 +----------------------+---------------+--------------+--------------+
 |                      |  %!  %ok  %OK | %!  %ok  %OK | %!  %ok  %OK |
 +----------------------+---------------+--------------+--------------+
 | Default Domain       |   0    1   99 |  0   <1  100 |  0    0  100 |
 +----------------------+---------------+--------------+--------------+

 Domain Name : Default Domain

     Total Number of Nodes                                =       27951

     Total Number of Elements                             =      100890
         Total Number of Tetrahedrons                     =       73815
         Total Number of Prisms                           =       27075

     Total Number of Faces                                =        7355

 +--------------------------------------------------------------------+
 |      Initial Conditions Supplied by Fields in the Input Files      |
 +--------------------------------------------------------------------+

 Domain Name : Default Domain
     Courant Number
     Eddy Viscosity
     Pressure
     Specific Heat Capacity at Constant Pressure
     Static Enthalpy
     Static Entropy
     Temperature
     Turbulence Eddy Dissipation
     Turbulence Eddy Frequency
     Turbulence Kinetic Energy
     Velocity

 +--------------------------------------------------------------------+
 |                     Average Scale Information                      |
 +--------------------------------------------------------------------+

 Domain Name : Default Domain
     Global Length                                         = 3.2431E+00
     Minimum Extent                                        = 4.0000E+00
     Maximum Extent                                        = 6.0000E+00
     Density                                               = 9.9700E+02
     Dynamic Viscosity                                     = 8.8990E-04
     Velocity                                              = 5.8053E+00
     Advection Time                                        = 5.5865E-01
     Reynolds Number                                       = 2.1093E+07
     Thermal Conductivity                                  = 6.0690E-01
     Specific Heat Capacity at Constant Pressure           = 4.1817E+03
     Prandtl Number                                        = 6.1316E+00
     Temperature Range                                     = 3.0013E+01

 +--------------------------------------------------------------------+
 |                Checking for Isolated Fluid Regions                 |
 +--------------------------------------------------------------------+
 
 No isolated fluid regions were found.

 +--------------------------------------------------------------------+
 |              The Equations Solved in This Calculation              |
 +--------------------------------------------------------------------+

 Subsystem : Momentum and Mass

   U-Mom
   V-Mom
   W-Mom
   P-Mass

 Subsystem : Heat Transfer

   H-Energy

 Subsystem : TurbKE and Diss.K

   K-TurbKE
   E-Diss.K
                   
 CFD Solver started: Mon Dec 10 11:31:59 2018


 +--------------------------------------------------------------------+
 |                       Convergence History                          |
 +--------------------------------------------------------------------+

 ======================================================================
 |                        Timescale Information                       |
 ----------------------------------------------------------------------
 |       Equation       |         Type          |      Timescale      |
 +----------------------+-----------------------+---------------------+
 | U-Mom                | Auto Timescale        |     1.74022E-01     |
 | V-Mom                | Auto Timescale        |     1.74022E-01     |
 | W-Mom                | Auto Timescale        |     1.74022E-01     |
 +----------------------+-----------------------+---------------------+
 | H-Energy             | Auto Timescale        |     1.74022E-01     |
 +----------------------+-----------------------+---------------------+
 | K-TurbKE             | Auto Timescale        |     1.74022E-01     |
 | E-Diss.K             | Auto Timescale        |     1.74022E-01     |
 +----------------------+-----------------------+---------------------+

 ======================================================================
 OUTER LOOP ITERATION =  446 (    1) CPU SECONDS = 3.538E+02 (3.970E+00)
 ----------------------------------------------------------------------
 |       Equation       | Rate | RMS Res | Max Res |  Linear Solution |
 +----------------------+------+---------+---------+------------------+
 | U-Mom                | 0.00 | 2.9E-03 | 4.3E-02 |       9.7E-02  OK|
 | V-Mom                | 0.00 | 2.9E-03 | 4.6E-02 |       9.3E-02  OK|
 | W-Mom                | 0.00 | 1.6E-03 | 2.8E-02 |       9.3E-02  OK|
 | P-Mass               | 0.00 | 9.9E-04 | 1.9E-02 |  5.2  8.0E-02  OK|
 +----------------------+------+---------+---------+------------------+
 | H-Energy             | 0.00 | 4.5E-03 | 8.2E-02 |  5.4  3.4E-02  OK|
 +----------------------+------+---------+---------+------------------+
 | K-TurbKE             | 0.00 | 6.5E-03 | 5.8E-02 |  5.4  4.3E-02  OK|
 | E-Diss.K             | 0.00 | 4.7E-02 | 8.8E-01 |  7.2  3.4E-03  OK|
 +----------------------+------+---------+---------+------------------+

 ======================================================================
 OUTER LOOP ITERATION =  447 (    2) CPU SECONDS = 3.549E+02 (5.109E+00)
 ----------------------------------------------------------------------
 |       Equation       | Rate | RMS Res | Max Res |  Linear Solution |
 +----------------------+------+---------+---------+------------------+
 | U-Mom                | 0.49 | 1.4E-03 | 4.3E-02 |       8.1E-02  OK|
 | V-Mom                | 0.45 | 1.3E-03 | 2.0E-02 |       7.7E-02  OK|
 | W-Mom                | 0.44 | 7.1E-04 | 1.5E-02 |       1.0E-01  ok|
 | P-Mass               | 0.41 | 4.0E-04 | 7.5E-03 |  9.3  4.7E-02  OK|
 +----------------------+------+---------+---------+------------------+
 | H-Energy             | 0.28 | 1.2E-03 | 4.5E-02 |  5.4  6.2E-02  OK|
 +----------------------+------+---------+---------+------------------+
 | K-TurbKE             | 2.41 | 1.6E-02 | 1.3E-01 |  5.4  2.8E-02  OK|
 | E-Diss.K             | 1.14 | 5.3E-02 | 9.9E-01 |  7.2  4.2E-03  OK|
 +----------------------+------+---------+---------+------------------+

 ======================================================================
 OUTER LOOP ITERATION =  448 (    3) CPU SECONDS = 3.560E+02 (6.166E+00)
 ----------------------------------------------------------------------
 |       Equation       | Rate | RMS Res | Max Res |  Linear Solution |
 +----------------------+------+---------+---------+------------------+
 | U-Mom                | 0.65 | 9.1E-04 | 4.9E-02 |       9.0E-02  OK|
 | V-Mom                | 0.55 | 7.3E-04 | 1.3E-02 |       8.7E-02  OK|
 | W-Mom                | 0.59 | 4.2E-04 | 9.9E-03 |       1.3E-01  ok|
 | P-Mass               | 0.49 | 2.0E-04 | 4.7E-03 |  9.3  6.9E-02  OK|
 +----------------------+------+---------+---------+------------------+
 | H-Energy             | 0.74 | 9.3E-04 | 3.6E-02 |  5.4  3.9E-02  OK|
 +----------------------+------+---------+---------+------------------+
 | K-TurbKE             | 0.54 | 8.5E-03 | 7.5E-02 |  5.4  3.7E-02  OK|
 | E-Diss.K             | 0.27 | 1.5E-02 | 1.8E-01 |  7.2  9.7E-03  OK|
 +----------------------+------+---------+---------+------------------+

 ======================================================================
 OUTER LOOP ITERATION =  449 (    4) CPU SECONDS = 3.571E+02 (7.261E+00)
 ----------------------------------------------------------------------
 |       Equation       | Rate | RMS Res | Max Res |  Linear Solution |
 +----------------------+------+---------+---------+------------------+
 | U-Mom                | 0.64 | 5.8E-04 | 3.8E-02 |       7.1E-02  OK|
 | V-Mom                | 0.58 | 4.2E-04 | 7.9E-03 |       7.2E-02  OK|
 | W-Mom                | 0.69 | 2.9E-04 | 5.7E-03 |       1.3E-01  ok|
 | P-Mass               | 0.60 | 1.2E-04 | 2.8E-03 |  9.3  7.0E-02  OK|
 +----------------------+------+---------+---------+------------------+
 | H-Energy             | 0.86 | 7.9E-04 | 2.5E-02 |  5.4  4.7E-02  OK|
 +----------------------+------+---------+---------+------------------+
 | K-TurbKE             | 0.61 | 5.2E-03 | 3.2E-02 |  5.4  3.7E-02  OK|
 | E-Diss.K             | 0.46 | 6.8E-03 | 1.2E-01 |  7.2  1.6E-02  OK|
 +----------------------+------+---------+---------+------------------+

 ======================================================================
 OUTER LOOP ITERATION =  450 (    5) CPU SECONDS = 3.582E+02 (8.369E+00)
 ----------------------------------------------------------------------
 |       Equation       | Rate | RMS Res | Max Res |  Linear Solution |
 +----------------------+------+---------+---------+------------------+
 | U-Mom                | 0.74 | 4.3E-04 | 2.2E-02 |       4.2E-02  OK|
 | V-Mom                | 0.83 | 3.5E-04 | 6.4E-03 |       4.5E-02  OK|
 | W-Mom                | 0.69 | 2.0E-04 | 3.9E-03 |       1.1E-01  ok|
 | P-Mass               | 0.64 | 7.5E-05 | 1.6E-03 |  9.3  5.9E-02  OK|
 +----------------------+------+---------+---------+------------------+
 | H-Energy             | 0.88 | 6.9E-04 | 1.6E-02 |  5.4  5.2E-02  OK|
 +----------------------+------+---------+---------+------------------+
 | K-TurbKE             | 0.41 | 2.1E-03 | 1.5E-02 |  5.4  2.7E-02  OK|
 | E-Diss.K             | 1.37 | 9.3E-03 | 1.6E-01 |  7.2  6.3E-03  OK|
 +----------------------+------+---------+---------+------------------+

 ======================================================================
 |                        Timescale Information                       |
 ----------------------------------------------------------------------
 |       Equation       |         Type          |      Timescale      |
 +----------------------+-----------------------+---------------------+
 | U-Mom                | Auto Timescale        |     1.83923E-01     |
 | V-Mom                | Auto Timescale        |     1.83923E-01     |
 | W-Mom                | Auto Timescale        |     1.83923E-01     |
 +----------------------+-----------------------+---------------------+
 | H-Energy             | Auto Timescale        |     1.83923E-01     |
 +----------------------+-----------------------+---------------------+
 | K-TurbKE             | Auto Timescale        |     1.83923E-01     |
 | E-Diss.K             | Auto Timescale        |     1.83923E-01     |
 +----------------------+-----------------------+---------------------+

 ======================================================================
 OUTER LOOP ITERATION =  451 (    6) CPU SECONDS = 3.593E+02 (9.483E+00)
 ----------------------------------------------------------------------
 |       Equation       | Rate | RMS Res | Max Res |  Linear Solution |
 +----------------------+------+---------+---------+------------------+
 | U-Mom                | 0.73 | 3.2E-04 | 1.2E-02 |       3.5E-02  OK|
 | V-Mom                | 0.84 | 2.9E-04 | 5.5E-03 |       3.7E-02  OK|
 | W-Mom                | 0.84 | 1.7E-04 | 3.7E-03 |       6.7E-02  OK|
 | P-Mass               | 0.61 | 4.6E-05 | 9.5E-04 |  9.3  5.3E-02  OK|
 +----------------------+------+---------+---------+------------------+
 | H-Energy             | 0.90 | 6.2E-04 | 1.2E-02 |  5.4  5.7E-02  OK|
 +----------------------+------+---------+---------+------------------+
 | K-TurbKE             | 0.71 | 1.5E-03 | 9.0E-03 |  5.4  2.9E-02  OK|
 | E-Diss.K             | 0.51 | 4.7E-03 | 4.1E-02 |  7.2  9.4E-03  OK|
 +----------------------+------+---------+---------+------------------+

 ======================================================================
 OUTER LOOP ITERATION =  452 (    7) CPU SECONDS = 3.604E+02 (1.054E+01)
 ----------------------------------------------------------------------
 |       Equation       | Rate | RMS Res | Max Res |  Linear Solution |
 +----------------------+------+---------+---------+------------------+
 | U-Mom                | 0.78 | 2.5E-04 | 7.1E-03 |       5.6E-02  OK|
 | V-Mom                | 0.91 | 2.7E-04 | 5.4E-03 |       5.3E-02  OK|
 | W-Mom                | 0.91 | 1.5E-04 | 3.6E-03 |       4.8E-02  OK|
 | P-Mass               | 0.70 | 3.2E-05 | 5.9E-04 |  9.3  6.8E-02  OK|
 +----------------------+------+---------+---------+------------------+
 | H-Energy             | 0.89 | 5.5E-04 | 6.8E-03 |  5.4  5.5E-02  OK|
 +----------------------+------+---------+---------+------------------+
 | K-TurbKE             | 0.63 | 9.5E-04 | 1.1E-02 |  5.4  3.3E-02  OK|
 | E-Diss.K             | 0.36 | 1.7E-03 | 2.5E-02 |  7.2  1.0E-02  OK|
 +----------------------+------+---------+---------+------------------+

 ======================================================================
 OUTER LOOP ITERATION =  453 (    8) CPU SECONDS = 3.614E+02 (1.158E+01)
 ----------------------------------------------------------------------
 |       Equation       | Rate | RMS Res | Max Res |  Linear Solution |
 +----------------------+------+---------+---------+------------------+
 | U-Mom                | 0.82 | 2.0E-04 | 4.6E-03 |       7.1E-02  OK|
 | V-Mom                | 0.92 | 2.5E-04 | 5.1E-03 |       6.4E-02  OK|
 | W-Mom                | 0.94 | 1.4E-04 | 3.5E-03 |       5.4E-02  OK|
 | P-Mass               | 0.92 | 2.9E-05 | 4.3E-04 |  9.3  8.7E-02  OK|
 +----------------------+------+---------+---------+------------------+
 | H-Energy             | 0.88 | 4.8E-04 | 5.1E-03 |  5.4  5.3E-02  OK|
 +----------------------+------+---------+---------+------------------+
 | K-TurbKE             | 0.76 | 7.2E-04 | 1.1E-02 |  5.4  4.1E-02  OK|
 | E-Diss.K             | 0.36 | 6.2E-04 | 7.2E-03 |  7.2  1.5E-02  OK|
 +----------------------+------+---------+---------+------------------+

 ======================================================================
 OUTER LOOP ITERATION =  454 (    9) CPU SECONDS = 3.625E+02 (1.262E+01)
 ----------------------------------------------------------------------
 |       Equation       | Rate | RMS Res | Max Res |  Linear Solution |
 +----------------------+------+---------+---------+------------------+
 | U-Mom                | 0.85 | 1.7E-04 | 3.3E-03 |       2.7E-02  OK|
 | V-Mom                | 0.92 | 2.3E-04 | 4.6E-03 |       2.3E-02  OK|
 | W-Mom                | 0.95 | 1.4E-04 | 3.4E-03 |       3.6E-02  OK|
 | P-Mass               | 1.02 | 3.0E-05 | 3.8E-04 | 13.5  4.0E-02  OK|
 +----------------------+------+---------+---------+------------------+
 | H-Energy             | 0.88 | 4.2E-04 | 4.7E-03 |  5.4  5.3E-02  OK|
 +----------------------+------+---------+---------+------------------+
 | K-TurbKE             | 0.86 | 6.2E-04 | 1.2E-02 |  5.4  5.5E-02  OK|
 | E-Diss.K             | 0.81 | 5.0E-04 | 1.2E-02 |  7.2  2.1E-02  OK|
 +----------------------+------+---------+---------+------------------+

 ======================================================================
 OUTER LOOP ITERATION =  455 (   10) CPU SECONDS = 3.636E+02 (1.376E+01)
 ----------------------------------------------------------------------
 |       Equation       | Rate | RMS Res | Max Res |  Linear Solution |
 +----------------------+------+---------+---------+------------------+
 | U-Mom                | 0.88 | 1.5E-04 | 2.6E-03 |       2.7E-02  OK|
 | V-Mom                | 0.92 | 2.1E-04 | 4.3E-03 |       2.4E-02  OK|
 | W-Mom                | 0.95 | 1.3E-04 | 3.3E-03 |       3.7E-02  OK|
 | P-Mass               | 1.07 | 3.2E-05 | 3.4E-04 | 13.5  3.8E-02  OK|
 +----------------------+------+---------+---------+------------------+
 | H-Energy             | 0.88 | 3.7E-04 | 4.3E-03 |  5.4  5.3E-02  OK|
 +----------------------+------+---------+---------+------------------+
 | K-TurbKE             | 0.93 | 5.7E-04 | 9.6E-03 |  5.4  5.7E-02  OK|
 | E-Diss.K             | 1.79 | 8.9E-04 | 2.3E-02 |  7.2  1.7E-02  OK|
 +----------------------+------+---------+---------+------------------+

 ======================================================================
 |                        Timescale Information                       |
 ----------------------------------------------------------------------
 |       Equation       |         Type          |      Timescale      |
 +----------------------+-----------------------+---------------------+
 | U-Mom                | Auto Timescale        |     1.83254E-01     |
 | V-Mom                | Auto Timescale        |     1.83254E-01     |
 | W-Mom                | Auto Timescale        |     1.83254E-01     |
 +----------------------+-----------------------+---------------------+
 | H-Energy             | Auto Timescale        |     1.83254E-01     |
 +----------------------+-----------------------+---------------------+
 | K-TurbKE             | Auto Timescale        |     1.83254E-01     |
 | E-Diss.K             | Auto Timescale        |     1.83254E-01     |
 +----------------------+-----------------------+---------------------+

 ======================================================================
 OUTER LOOP ITERATION =  456 (   11) CPU SECONDS = 3.647E+02 (1.483E+01)
 ----------------------------------------------------------------------
 |       Equation       | Rate | RMS Res | Max Res |  Linear Solution |
 +----------------------+------+---------+---------+------------------+
 | U-Mom                | 0.91 | 1.4E-04 | 3.0E-03 |       2.8E-02  OK|
 | V-Mom                | 0.92 | 1.9E-04 | 4.0E-03 |       2.4E-02  OK|
 | W-Mom                | 0.94 | 1.2E-04 | 3.1E-03 |       3.9E-02  OK|
 | P-Mass               | 0.98 | 3.1E-05 | 2.8E-04 | 13.5  4.0E-02  OK|
 +----------------------+------+---------+---------+------------------+
 | H-Energy             | 0.88 | 3.3E-04 | 3.5E-03 |  5.4  5.2E-02  OK|
 +----------------------+------+---------+---------+------------------+
 | K-TurbKE             | 0.96 | 5.5E-04 | 9.4E-03 |  5.4  5.4E-02  OK|
 | E-Diss.K             | 1.12 | 9.9E-04 | 2.2E-02 |  7.2  1.7E-02  OK|
 +----------------------+------+---------+---------+------------------+

 ======================================================================
 OUTER LOOP ITERATION =  457 (   12) CPU SECONDS = 3.657E+02 (1.590E+01)
 ----------------------------------------------------------------------
 |       Equation       | Rate | RMS Res | Max Res |  Linear Solution |
 +----------------------+------+---------+---------+------------------+
 | U-Mom                | 0.93 | 1.3E-04 | 3.6E-03 |       2.8E-02  OK|
 | V-Mom                | 0.92 | 1.8E-04 | 3.7E-03 |       2.4E-02  OK|
 | W-Mom                | 0.93 | 1.1E-04 | 2.9E-03 |       4.1E-02  OK|
 | P-Mass               | 0.96 | 3.0E-05 | 2.4E-04 | 13.5  4.1E-02  OK|
 +----------------------+------+---------+---------+------------------+
 | H-Energy             | 0.89 | 2.9E-04 | 3.6E-03 |  5.4  5.2E-02  OK|
 +----------------------+------+---------+---------+------------------+
 | K-TurbKE             | 0.99 | 5.4E-04 | 6.8E-03 |  5.4  5.2E-02  OK|
 | E-Diss.K             | 1.04 | 1.0E-03 | 2.1E-02 |  7.2  1.7E-02  OK|
 +----------------------+------+---------+---------+------------------+

 ======================================================================
 OUTER LOOP ITERATION =  458 (   13) CPU SECONDS = 3.668E+02 (1.697E+01)
 ----------------------------------------------------------------------
 |       Equation       | Rate | RMS Res | Max Res |  Linear Solution |
 +----------------------+------+---------+---------+------------------+
 | U-Mom                | 0.94 | 1.2E-04 | 4.0E-03 |       2.8E-02  OK|
 | V-Mom                | 0.92 | 1.6E-04 | 3.4E-03 |       2.4E-02  OK|
 | W-Mom                | 0.92 | 1.0E-04 | 2.7E-03 |       4.3E-02  OK|
 | P-Mass               | 0.95 | 2.8E-05 | 2.3E-04 | 13.5  4.2E-02  OK|
 +----------------------+------+---------+---------+------------------+
 | H-Energy             | 0.88 | 2.6E-04 | 3.6E-03 |  5.4  5.1E-02  OK|
 +----------------------+------+---------+---------+------------------+
 | K-TurbKE             | 1.01 | 5.5E-04 | 6.6E-03 |  5.4  5.0E-02  OK|
 | E-Diss.K             | 1.05 | 1.1E-03 | 2.0E-02 |  7.2  1.7E-02  OK|
 +----------------------+------+---------+---------+------------------+

 ======================================================================
 OUTER LOOP ITERATION =  459 (   14) CPU SECONDS = 3.679E+02 (1.804E+01)
 ----------------------------------------------------------------------
 |       Equation       | Rate | RMS Res | Max Res |  Linear Solution |
 +----------------------+------+---------+---------+------------------+
 | U-Mom                | 0.95 | 1.2E-04 | 4.2E-03 |       2.8E-02  OK|
 | V-Mom                | 0.92 | 1.5E-04 | 3.4E-03 |       2.5E-02  OK|
 | W-Mom                | 0.91 | 9.5E-05 | 2.7E-03 |       4.7E-02  OK|
 | P-Mass               | 0.95 | 2.7E-05 | 2.2E-04 | 13.5  4.2E-02  OK|
 +----------------------+------+---------+---------+------------------+
 | H-Energy             | 0.88 | 2.2E-04 | 3.3E-03 |  5.4  5.1E-02  OK|
 +----------------------+------+---------+---------+------------------+
 | K-TurbKE             | 1.01 | 5.5E-04 | 5.6E-03 |  5.4  4.9E-02  OK|
 | E-Diss.K             | 1.01 | 1.1E-03 | 1.9E-02 |  7.2  1.7E-02  OK|
 +----------------------+------+---------+---------+------------------+

 ======================================================================
 OUTER LOOP ITERATION =  460 (   15) CPU SECONDS = 3.690E+02 (1.915E+01)
 ----------------------------------------------------------------------
 |       Equation       | Rate | RMS Res | Max Res |  Linear Solution |
 +----------------------+------+---------+---------+------------------+
 | U-Mom                | 0.95 | 1.1E-04 | 4.4E-03 |       2.8E-02  OK|
 | V-Mom                | 0.92 | 1.4E-04 | 3.6E-03 |       2.5E-02  OK|
 | W-Mom                | 0.90 | 8.5E-05 | 2.6E-03 |       5.2E-02  OK|
 | P-Mass               | 0.95 | 2.5E-05 | 2.0E-04 | 13.5  4.3E-02  OK|
 +----------------------+------+---------+---------+------------------+
 | H-Energy             | 0.88 | 2.0E-04 | 2.8E-03 |  5.4  5.0E-02  OK|
 +----------------------+------+---------+---------+------------------+
 | K-TurbKE             | 1.00 | 5.5E-04 | 4.0E-03 |  5.4  4.8E-02  OK|
 | E-Diss.K             | 0.98 | 1.1E-03 | 1.7E-02 |  7.2  1.7E-02  OK|
 +----------------------+------+---------+---------+------------------+

 ======================================================================
 |                        Timescale Information                       |
 ----------------------------------------------------------------------
 |       Equation       |         Type          |      Timescale      |
 +----------------------+-----------------------+---------------------+
 | U-Mom                | Auto Timescale        |     1.80576E-01     |
 | V-Mom                | Auto Timescale        |     1.80576E-01     |
 | W-Mom                | Auto Timescale        |     1.80576E-01     |
 +----------------------+-----------------------+---------------------+
 | H-Energy             | Auto Timescale        |     1.80576E-01     |
 +----------------------+-----------------------+---------------------+
 | K-TurbKE             | Auto Timescale        |     1.80576E-01     |
 | E-Diss.K             | Auto Timescale        |     1.80576E-01     |
 +----------------------+-----------------------+---------------------+

 ======================================================================
 OUTER LOOP ITERATION =  461 (   16) CPU SECONDS = 3.701E+02 (2.026E+01)
 ----------------------------------------------------------------------
 |       Equation       | Rate | RMS Res | Max Res |  Linear Solution |
 +----------------------+------+---------+---------+------------------+
 | U-Mom                | 0.96 | 1.0E-04 | 4.5E-03 |       2.8E-02  OK|
 | V-Mom                | 0.92 | 1.3E-04 | 3.8E-03 |       2.5E-02  OK|
 | W-Mom                | 0.89 | 7.6E-05 | 2.4E-03 |       5.7E-02  OK|
 | P-Mass               | 0.95 | 2.4E-05 | 1.9E-04 | 13.5  4.3E-02  OK|
 +----------------------+------+---------+---------+------------------+
 | H-Energy             | 0.88 | 1.7E-04 | 2.4E-03 |  5.4  5.0E-02  OK|
 +----------------------+------+---------+---------+------------------+
 | K-TurbKE             | 1.00 | 5.5E-04 | 3.8E-03 |  5.4  4.7E-02  OK|
 | E-Diss.K             | 0.97 | 1.0E-03 | 1.6E-02 |  7.2  1.7E-02  OK|
 +----------------------+------+---------+---------+------------------+

 ======================================================================
 OUTER LOOP ITERATION =  462 (   17) CPU SECONDS = 3.712E+02 (2.133E+01)
 ----------------------------------------------------------------------
 |       Equation       | Rate | RMS Res | Max Res |  Linear Solution |
 +----------------------+------+---------+---------+------------------+
 | U-Mom                | 0.96 | 1.0E-04 | 4.6E-03 |       2.8E-02  OK|
 | V-Mom                | 0.93 | 1.2E-04 | 3.9E-03 |       2.6E-02  OK|
 | W-Mom                | 0.90 | 6.8E-05 | 2.3E-03 |       6.1E-02  OK|
 | P-Mass               | 0.95 | 2.3E-05 | 1.8E-04 | 13.5  4.3E-02  OK|
 +----------------------+------+---------+---------+------------------+
 | H-Energy             | 0.89 | 1.6E-04 | 2.0E-03 |  5.4  5.1E-02  OK|
 +----------------------+------+---------+---------+------------------+
 | K-TurbKE             | 0.99 | 5.4E-04 | 2.9E-03 |  5.4  4.6E-02  OK|
 | E-Diss.K             | 0.97 | 1.0E-03 | 1.5E-02 |  7.2  1.7E-02  OK|
 +----------------------+------+---------+---------+------------------+

 ======================================================================
 OUTER LOOP ITERATION =  463 (   18) CPU SECONDS = 3.722E+02 (2.240E+01)
 ----------------------------------------------------------------------
 |       Equation       | Rate | RMS Res | Max Res |  Linear Solution |
 +----------------------+------+---------+---------+------------------+
 | U-Mom                | 0.96 | 9.6E-05 | 4.6E-03 |       2.9E-02  OK|
 | V-Mom                | 0.94 | 1.1E-04 | 3.9E-03 |       2.6E-02  OK|
 | W-Mom                | 0.90 | 6.1E-05 | 2.1E-03 |       6.7E-02  OK|
 | P-Mass               | 0.95 | 2.2E-05 | 1.7E-04 | 13.5  4.4E-02  OK|
 +----------------------+------+---------+---------+------------------+
 | H-Energy             | 0.91 | 1.4E-04 | 1.7E-03 |  5.4  5.2E-02  OK|
 +----------------------+------+---------+---------+------------------+
 | K-TurbKE             | 0.99 | 5.4E-04 | 2.4E-03 |  5.4  4.7E-02  OK|
 | E-Diss.K             | 0.97 | 9.7E-04 | 1.4E-02 |  7.2  1.7E-02  OK|
 +----------------------+------+---------+---------+------------------+

 ======================================================================
 OUTER LOOP ITERATION =  464 (   19) CPU SECONDS = 3.733E+02 (2.347E+01)
 ----------------------------------------------------------------------
 |       Equation       | Rate | RMS Res | Max Res |  Linear Solution |
 +----------------------+------+---------+---------+------------------+
 | U-Mom                | 0.96 | 9.3E-05 | 4.4E-03 |       2.9E-02  OK|
 | V-Mom                | 0.95 | 1.1E-04 | 4.0E-03 |       2.7E-02  OK|
 | W-Mom                | 0.91 | 5.6E-05 | 1.9E-03 |       7.2E-02  OK|
 | P-Mass               | 0.96 | 2.1E-05 | 1.7E-04 | 13.5  4.5E-02  OK|
 +----------------------+------+---------+---------+------------------+
 | H-Energy             | 0.92 | 1.3E-04 | 1.6E-03 |  5.4  5.6E-02  OK|
 +----------------------+------+---------+---------+------------------+
 | K-TurbKE             | 0.98 | 5.3E-04 | 2.4E-03 |  5.4  4.7E-02  OK|
 | E-Diss.K             | 0.96 | 9.4E-04 | 1.3E-02 |  7.2  1.7E-02  OK|
 +----------------------+------+---------+---------+------------------+

 ======================================================================
 OUTER LOOP ITERATION =  465 (   20) CPU SECONDS = 3.744E+02 (2.455E+01)
 ----------------------------------------------------------------------
 |       Equation       | Rate | RMS Res | Max Res |  Linear Solution |
 +----------------------+------+---------+---------+------------------+
 | U-Mom                | 0.97 | 9.0E-05 | 4.3E-03 |       2.9E-02  OK|
 | V-Mom                | 0.95 | 1.0E-04 | 4.0E-03 |       2.7E-02  OK|
 | W-Mom                | 0.92 | 5.2E-05 | 1.7E-03 |       7.7E-02  OK|
 | P-Mass               | 0.96 | 2.0E-05 | 1.8E-04 | 13.5  4.6E-02  OK|
 +----------------------+------+---------+---------+------------------+
 | H-Energy             | 0.94 | 1.2E-04 | 1.4E-03 |  5.4  5.9E-02  OK|
 +----------------------+------+---------+---------+------------------+
 | K-TurbKE             | 0.98 | 5.1E-04 | 2.4E-03 |  5.4  4.6E-02  OK|
 | E-Diss.K             | 0.96 | 9.0E-04 | 1.2E-02 |  7.2  1.7E-02  OK|
 +----------------------+------+---------+---------+------------------+

 ======================================================================
 |                        Timescale Information                       |
 ----------------------------------------------------------------------
 |       Equation       |         Type          |      Timescale      |
 +----------------------+-----------------------+---------------------+
 | U-Mom                | Auto Timescale        |     1.77745E-01     |
 | V-Mom                | Auto Timescale        |     1.77745E-01     |
 | W-Mom                | Auto Timescale        |     1.77745E-01     |
 +----------------------+-----------------------+---------------------+
 | H-Energy             | Auto Timescale        |     1.77745E-01     |
 +----------------------+-----------------------+---------------------+
 | K-TurbKE             | Auto Timescale        |     1.77745E-01     |
 | E-Diss.K             | Auto Timescale        |     1.77745E-01     |
 +----------------------+-----------------------+---------------------+

 ======================================================================
 OUTER LOOP ITERATION =  466 (   21) CPU SECONDS = 3.755E+02 (2.561E+01)
 ----------------------------------------------------------------------
 |       Equation       | Rate | RMS Res | Max Res |  Linear Solution |
 +----------------------+------+---------+---------+------------------+
 | U-Mom                | 0.97 | 8.8E-05 | 4.2E-03 |       2.8E-02  OK|
 | V-Mom                | 0.96 | 9.6E-05 | 4.0E-03 |       2.7E-02  OK|
 | W-Mom                | 0.94 | 4.9E-05 | 1.5E-03 |       8.0E-02  OK|
 | P-Mass               | 0.96 | 1.9E-05 | 1.9E-04 | 13.5  4.6E-02  OK|
 +----------------------+------+---------+---------+------------------+
 | H-Energy             | 0.94 | 1.2E-04 | 1.3E-03 |  5.4  6.2E-02  OK|
 +----------------------+------+---------+---------+------------------+
 | K-TurbKE             | 0.97 | 5.0E-04 | 2.4E-03 |  5.4  4.6E-02  OK|
 | E-Diss.K             | 0.95 | 8.5E-04 | 1.1E-02 |  7.2  1.7E-02  OK|
 +----------------------+------+---------+---------+------------------+

 ======================================================================
 OUTER LOOP ITERATION =  467 (   22) CPU SECONDS = 3.765E+02 (2.668E+01)
 ----------------------------------------------------------------------
 |       Equation       | Rate | RMS Res | Max Res |  Linear Solution |
 +----------------------+------+---------+---------+------------------+
 | U-Mom                | 0.97 | 8.5E-05 | 4.1E-03 |       2.8E-02  OK|
 | V-Mom                | 0.96 | 9.2E-05 | 4.1E-03 |       2.8E-02  OK|
 | W-Mom                | 0.96 | 4.7E-05 | 1.4E-03 |       8.2E-02  OK|
 | P-Mass               | 0.95 | 1.8E-05 | 1.9E-04 | 13.5  4.7E-02  OK|
 +----------------------+------+---------+---------+------------------+
 | H-Energy             | 0.95 | 1.1E-04 | 1.2E-03 |  5.4  6.5E-02  OK|
 +----------------------+------+---------+---------+------------------+
 | K-TurbKE             | 0.97 | 4.8E-04 | 2.5E-03 |  5.4  4.6E-02  OK|
 | E-Diss.K             | 0.95 | 8.1E-04 | 1.0E-02 |  7.2  1.7E-02  OK|
 +----------------------+------+---------+---------+------------------+

 ======================================================================
 OUTER LOOP ITERATION =  468 (   23) CPU SECONDS = 3.776E+02 (2.775E+01)
 ----------------------------------------------------------------------
 |       Equation       | Rate | RMS Res | Max Res |  Linear Solution |
 +----------------------+------+---------+---------+------------------+
 | U-Mom                | 0.98 | 8.3E-05 | 4.1E-03 |       2.8E-02  OK|
 | V-Mom                | 0.97 | 8.9E-05 | 4.1E-03 |       2.8E-02  OK|
 | W-Mom                | 0.98 | 4.6E-05 | 1.4E-03 |       8.3E-02  OK|
 | P-Mass               | 0.96 | 1.7E-05 | 2.0E-04 | 13.5  4.8E-02  OK|
 +----------------------+------+---------+---------+------------------+
 | H-Energy             | 0.95 | 1.0E-04 | 1.2E-03 |  5.4  6.7E-02  OK|
 +----------------------+------+---------+---------+------------------+
 | K-TurbKE             | 0.96 | 4.6E-04 | 2.4E-03 |  5.4  4.6E-02  OK|
 | E-Diss.K             | 0.95 | 7.7E-04 | 9.6E-03 |  7.2  1.8E-02  OK|
 +----------------------+------+---------+---------+------------------+

 ======================================================================
 OUTER LOOP ITERATION =  469 (   24) CPU SECONDS = 3.787E+02 (2.887E+01)
 ----------------------------------------------------------------------
 |       Equation       | Rate | RMS Res | Max Res |  Linear Solution |
 +----------------------+------+---------+---------+------------------+
 | U-Mom                | 0.98 | 8.1E-05 | 4.1E-03 |       2.8E-02  OK|
 | V-Mom                | 0.98 | 8.7E-05 | 4.1E-03 |       2.8E-02  OK|
 | W-Mom                | 0.99 | 4.6E-05 | 1.4E-03 |       8.4E-02  OK|
 | P-Mass               | 0.96 | 1.7E-05 | 2.0E-04 | 13.5  4.8E-02  OK|
 +----------------------+------+---------+---------+------------------+
 | H-Energy             | 0.96 | 9.9E-05 | 1.1E-03 |  5.4  6.7E-02  OK|
 +----------------------+------+---------+---------+------------------+
 | K-TurbKE             | 0.96 | 4.4E-04 | 2.3E-03 |  5.4  4.5E-02  OK|
 | E-Diss.K             | 0.95 | 7.3E-04 | 9.0E-03 |  7.2  1.8E-02  OK|
 +----------------------+------+---------+---------+------------------+
                   
 CFD Solver finished: Mon Dec 10 11:32:25 2018
 CFD Solver wall clock seconds: 2.6013E+01

 ======================================================================
              Termination and Interrupt Condition Summary
 ======================================================================
    
 CFD Solver: All target criteria reached
   (Equation residuals)

 ======================================================================
              Boundary Flow and Total Source Term Summary
 ======================================================================

 +--------------------------------------------------------------------+
 |                               U-Mom                                |
 +--------------------------------------------------------------------+
 Boundary         : Default Domain Default                 -5.8809E+01
 Boundary         : in1                                     4.6730E-05
 Boundary         : in2                                    -6.5982E-05
 Boundary         : out                                     5.0399E+01
                                                           -----------
 Domain Imbalance :                                        -8.4102E+00

 +--------------------------------------------------------------------+
 |                               V-Mom                                |
 +--------------------------------------------------------------------+
 Boundary         : Default Domain Default                  1.7259E+02
 Boundary         : in1                                     5.5444E+04
 Boundary         : in2                                    -5.5640E+04
 Boundary         : out                                     2.2583E+01
                                                           -----------
 Domain Imbalance :                                        -2.4861E-01

 +--------------------------------------------------------------------+
 |                               W-Mom                                |
 +--------------------------------------------------------------------+
 Boundary         : Default Domain Default                 -9.3301E+03
 Boundary         : in1                                    -1.2815E-05
 Boundary         : in2                                    -7.6452E-06
 Boundary         : out                                     9.3688E+03
                                                           -----------
 Domain Imbalance :                                         3.8674E+01

 +--------------------------------------------------------------------+
 |                               P-Mass                               |
 +--------------------------------------------------------------------+
 Boundary         : in1                                     1.5000E+03
 Boundary         : in2                                     1.5000E+03
 Boundary         : out                                    -2.9994E+03
                                                           -----------
 Domain Imbalance :                                         6.2012E-01

 +--------------------------------------------------------------------+
 |                              H-Energy                              |
 +--------------------------------------------------------------------+
 Boundary         : in1                                     1.0569E+08
 Boundary         : in2                                    -8.2484E+07
 Boundary         : out                                    -2.4678E+07
                                                           -----------
 Domain Imbalance :                                        -1.4701E+06


 +--------------------------------------------------------------------+
 |                     Normalised Imbalance Summary                   |
 +--------------------------------------------------------------------+
 |       Equation       |      Maximum Flow     |     Imbalance (%)   |
 +--------------------------------------------------------------------+
 | U-Mom                |       5.5640E+04      |       -0.0151       |
 | V-Mom                |       5.5640E+04      |       -0.0004       |
 | W-Mom                |       5.5640E+04      |        0.0695       |
 | P-Mass               |       2.9994E+03      |        0.0207       |
 +----------------------+-----------------------+---------------------+
 | H-Energy             |       1.0569E+08      |       -1.3909       |
 +----------------------+-----------------------+---------------------+

 ======================================================================
                     Wall Force and Moment Summary
 ======================================================================
                                                                          
 Notes:
 1. Pressure integrals exclude the reference pressure.  To include
    it, set the expert parameter 'include pref in forces = t'.


 +--------------------------------------------------------------------+
 |                      Pressure Force On Walls                       |
 +--------------------------------------------------------------------+
                                    X-Comp.      Y-Comp.      Z-Comp.

 Domain Group: Default Domain

 Default Domain Default           6.6242E+01  -1.5998E+02   9.3945E+03
                                  -----------  -----------  -----------
 Domain Group Totals :            6.6242E+01  -1.5998E+02   9.3945E+03


 +--------------------------------------------------------------------+
 |                       Viscous Force On Walls                       |
 +--------------------------------------------------------------------+
                                    X-Comp.      Y-Comp.      Z-Comp.

 Domain Group: Default Domain

 Default Domain Default          -7.6775E+00  -1.2535E+01  -6.4052E+01
                                  -----------  -----------  -----------
 Domain Group Totals :           -7.6775E+00  -1.2535E+01  -6.4052E+01


 +--------------------------------------------------------------------+
 |                      Pressure Moment On Walls                      |
 +--------------------------------------------------------------------+
                                    X-Comp.      Y-Comp.      Z-Comp.

 Domain Group: Default Domain

 Default Domain Default           3.1292E+02   1.7534E+02  -9.8383E+04
                                  -----------  -----------  -----------
 Domain Group Totals :            3.1292E+02   1.7534E+02  -9.8383E+04


 +--------------------------------------------------------------------+
 |                       Viscous Moment On Walls                      |
 +--------------------------------------------------------------------+
                                    X-Comp.      Y-Comp.      Z-Comp.

 Domain Group: Default Domain

 Default Domain Default           8.7956E-01  -6.4949E+00  -5.9698E+03
                                  -----------  -----------  -----------
 Domain Group Totals :            8.7956E-01  -6.4949E+00  -5.9698E+03


 +--------------------------------------------------------------------+
 |                   Locations of Maximum Residuals                   |
 +--------------------------------------------------------------------+
 |       Equation       |      Domain Name      |     Node Number     |
 +--------------------------------------------------------------------+
 | U-Mom                | Default Domain        |          25343      |
 | V-Mom                | Default Domain        |          25343      |
 | W-Mom                | Default Domain        |          25364      |
 | P-Mass               | Default Domain        |          26469      |
 +----------------------+-----------------------+---------------------+
 | H-Energy             | Default Domain        |          25364      |
 +----------------------+-----------------------+---------------------+
 | K-TurbKE             | Default Domain        |            213      |
 | E-Diss.K             | Default Domain        |          27330      |
 +----------------------+-----------------------+---------------------+

 ======================================================================
 |                     False Transient Information                    |
 +--------------------------------------------------------------------+
 |       Equation       |         Type          | Elapsed Pseudo-Time |
 +--------------------------------------------------------------------+
 | U-Mom                | Auto Timescale        |     4.31986E+00     |
 | V-Mom                | Auto Timescale        |     4.31986E+00     |
 | W-Mom                | Auto Timescale        |     4.31986E+00     |
 +----------------------+-----------------------+---------------------+
 | H-Energy             | Auto Timescale        |     4.31986E+00     |
 +----------------------+-----------------------+---------------------+
 | K-TurbKE             | Auto Timescale        |     4.31986E+00     |
 | E-Diss.K             | Auto Timescale        |     4.31986E+00     |
 +----------------------+-----------------------+---------------------+

 +--------------------------------------------------------------------+
 |                     Average Scale Information                      |
 +--------------------------------------------------------------------+

 Domain Name : Default Domain
     Global Length                                         = 3.2431E+00
     Minimum Extent                                        = 4.0000E+00
     Maximum Extent                                        = 6.0000E+00
     Density                                               = 9.9700E+02
     Dynamic Viscosity                                     = 8.8990E-04
     Velocity                                              = 5.7537E+00
     Advection Time                                        = 5.6366E-01
     Reynolds Number                                       = 2.0906E+07
     Thermal Conductivity                                  = 6.0690E-01
     Specific Heat Capacity at Constant Pressure           = 4.1817E+03
     Prandtl Number                                        = 6.1316E+00
     Temperature Range                                     = 3.0017E+01

 +--------------------------------------------------------------------+
 |                     Variable Range Information                     |
 +--------------------------------------------------------------------+

 Domain Name : Default Domain
 +--------------------------------------------------------------------+
 |      Variable Name                         |    min    |    max    |
 +--------------------------------------------------------------------+
 | Density                                    |  9.97E+02 |  9.97E+02 |
 | Specific Heat Capacity at Constant Pressure|  4.18E+03 |  4.18E+03 |
 | Dynamic Viscosity                          |  8.90E-04 |  8.90E-04 |
 | Thermal Conductivity                       |  6.07E-01 |  6.07E-01 |
 | Static Entropy                             | -1.89E+02 |  2.30E+02 |
 | Velocity u                                 | -6.82E+00 |  6.79E+00 |
 | Velocity v                                 | -7.19E+00 |  7.20E+00 |
 | Velocity w                                 | -4.68E+00 |  2.02E+00 |
 | Pressure                                   | -8.78E+03 |  6.99E+04 |
 | Turbulence Kinetic Energy                  |  1.05E-04 |  3.20E+00 |
 | Turbulence Eddy Dissipation                |  2.82E-04 |  1.24E+02 |
 | Eddy Viscosity                             |  1.19E-03 |  2.95E+02 |
 | Temperature                                |  2.85E+02 |  3.15E+02 |
 | Static Enthalpy                            | -5.50E+04 |  7.05E+04 |
 +--------------------------------------------------------------------+

 +--------------------------------------------------------------------+
 |               CPU Requirements of Numerical Solution               |
 +--------------------------------------------------------------------+

 Subsystem Name                  Discretization       Linear Solution
                                (secs.   %total)     (secs.   %total) 
 ----------------------------------------------------------------------
 Momentum and Mass              9.13E+00  27.1 %     2.84E+00   8.4 %
 Heat Transfer                  3.05E+00   9.0 %     9.93E-01   2.9 %
 TurbKE and Diss.K              4.74E+00  14.1 %     2.19E+00   6.5 %
                                -------- -------     --------  ------
 Subsystem Summary              1.69E+01  50.2 %     6.03E+00  17.9 %

 File Reading                   2.20E-02    0.1 %
 Variable Updates               2.91E+00    8.6 %
 File Writing                   6.59E-01    2.0 %
 Miscellaneous                  7.17E+00   21.3 %
                                --------
 Total                          3.37E+01

 +--------------------------------------------------------------------+
 |                   Job Information at End of Run                    |
 +--------------------------------------------------------------------+

 Host computer:  ENPC-LAB121 (PID:12652)

 Job finished:   Mon Dec 10 11:32:28 2018

 Total wall clock time: 3.370E+01 seconds
             or: (          0:         0:         0:    33.704 )
                 (       Days:     Hours:   Minutes:   Seconds )

End of solution stage.

 +--------------------------------------------------------------------+
 | The results from this run of the ANSYS CFX Solver have been        |
 | written to D:/CFD                                                  |
 | BackUps/CFD-Static-Mixer/StaticMixerDX_pending/dp13_CFX_Solution/- |
 | Fluid Flow CFX_012.res                                             |
 +--------------------------------------------------------------------+


 +--------------------------------------------------------------------+
 | For CFX runs launched from Workbench, the final locations of       |
 | directories and files generated may differ from those shown.       |
 +--------------------------------------------------------------------+


This run of the ANSYS CFX Solver has finished.
