 This run of the CFX Release 19.1 Solver started at 13:47:39 on 05 Dec
 2018 by user jc2182 on ENPC-LAB137 (intel_xeon64.sse2_winnt) using the
 command:
 
  "C:\Program Files\ANSYS Inc\v191\CFX\bin\perllib\cfx5solve.pl" -batch
    -ccl runInput.ccl -fullname "Fluid Flow CFX_003"
 
 Release 19.1
 
  Point Releases and Patches installed:
  ANSYS, Inc. Products Release 19.1
  SpaceClaim Release 19.1
  Autodyn Release 19.1
  LS-DYNA Release 19.1
  CFD-Post only Release 19.1
  CFX (includes CFD-Post) Release 19.1
  Chemkin Release 19.1
  EnSight Release 19.1
  FENSAP-ICE Release 19.1
  Fluent (includes CFD-Post) Release 19.1
  Forte Release 19.1
  Polyflow (includes CFD-Post) Release 19.1
  TurboGrid Release 19.1
  ICEM CFD Release 19.1
  Customization Files for User Programmable Features Release 19.1
  Mechanical Products Release 19.1
  Icepak (includes CFD-Post) Release 19.1
  Remote Solve Manager Standalone Services Release 19.1
  ACIS Geometry Interface Release 19.1
  Catia, Version 5 Geometry Interface Release 19.1
  NX Geometry Interface Release 19.1
  Parasolid Geometry Interface  Release 19.1
  ANSYS, Inc. License Manager Release 19.1
 
 Setting up CFX Solver run ...
 
 
 +--------------------------------------------------------------------+
 |                                                                    |
 |                    CFX Command Language for Run                    |
 |                                                                    |
 +--------------------------------------------------------------------+
 
 LIBRARY:
   CEL:
     EXPRESSIONS:
       inMassFlow = 1500 [kg s^-1]
     END
   END
   MATERIAL: Water
     Material Description = Water (liquid)
     Material Group = Water Data, Constant Property Liquids
     Option = Pure Substance
     Thermodynamic State = Liquid
     PROPERTIES:
       Option = General Material
       EQUATION OF STATE:
         Density = 997.0 [kg m^-3]
         Molar Mass = 18.02 [kg kmol^-1]
         Option = Value
       END
       SPECIFIC HEAT CAPACITY:
         Option = Value
         Specific Heat Capacity = 4181.7 [J kg^-1 K^-1]
         Specific Heat Type = Constant Pressure
       END
       REFERENCE STATE:
         Option = Specified Point
         Reference Pressure = 1 [atm]
         Reference Specific Enthalpy = 0.0 [J/kg]
         Reference Specific Entropy = 0.0 [J/kg/K]
         Reference Temperature = 25 [C]
       END
       DYNAMIC VISCOSITY:
         Dynamic Viscosity = 8.899E-4 [kg m^-1 s^-1]
         Option = Value
       END
       THERMAL CONDUCTIVITY:
         Option = Value
         Thermal Conductivity = 0.6069 [W m^-1 K^-1]
       END
       ABSORPTION COEFFICIENT:
         Absorption Coefficient = 1.0 [m^-1]
         Option = Value
       END
       SCATTERING COEFFICIENT:
         Option = Value
         Scattering Coefficient = 0.0 [m^-1]
       END
       REFRACTIVE INDEX:
         Option = Value
         Refractive Index = 1.0 [m m^-1]
       END
       THERMAL EXPANSIVITY:
         Option = Value
         Thermal Expansivity = 2.57E-04 [K^-1]
       END
     END
   END
 END
 FLOW: Flow Analysis 1
   SOLUTION UNITS:
     Angle Units = [rad]
     Length Units = [m]
     Mass Units = [kg]
     Solid Angle Units = [sr]
     Temperature Units = [K]
     Time Units = [s]
   END
   ANALYSIS TYPE:
     Option = Steady State
     EXTERNAL SOLVER COUPLING:
       Option = None
     END
   END
   DOMAIN: Default Domain
     Coord Frame = Coord 0
     Domain Type = Fluid
     Location = B17
     BOUNDARY: Default Domain Default
       Boundary Type = WALL
       Location = F12.17,F14.17,F16.17,F19.17,F20.17,F21.17
       BOUNDARY CONDITIONS:
         HEAT TRANSFER:
           Option = Adiabatic
         END
         MASS AND MOMENTUM:
           Option = No Slip Wall
         END
         WALL ROUGHNESS:
           Option = Smooth Wall
         END
       END
     END
     BOUNDARY: in1
       Boundary Type = INLET
       Location = in1
       BOUNDARY CONDITIONS:
         FLOW DIRECTION:
           Option = Normal to Boundary Condition
         END
         FLOW REGIME:
           Option = Subsonic
         END
         HEAT TRANSFER:
           Option = Static Temperature
           Static Temperature = 315 [K]
         END
         MASS AND MOMENTUM:
           Mass Flow Rate = inMassFlow
           Mass Flow Rate Area = As Specified
           Option = Mass Flow Rate
         END
         TURBULENCE:
           Option = Medium Intensity and Eddy Viscosity Ratio
         END
       END
     END
     BOUNDARY: in2
       Boundary Type = INLET
       Location = in2
       BOUNDARY CONDITIONS:
         FLOW DIRECTION:
           Option = Normal to Boundary Condition
         END
         FLOW REGIME:
           Option = Subsonic
         END
         HEAT TRANSFER:
           Option = Static Temperature
           Static Temperature = 285 [K]
         END
         MASS AND MOMENTUM:
           Mass Flow Rate = inMassFlow
           Mass Flow Rate Area = As Specified
           Option = Mass Flow Rate
         END
         TURBULENCE:
           Option = Medium Intensity and Eddy Viscosity Ratio
         END
       END
     END
     BOUNDARY: out
       Boundary Type = OUTLET
       Location = out
       BOUNDARY CONDITIONS:
         FLOW REGIME:
           Option = Subsonic
         END
         MASS AND MOMENTUM:
           Option = Static Pressure
           Relative Pressure = 0 [Pa]
         END
       END
     END
     DOMAIN MODELS:
       BUOYANCY MODEL:
         Option = Non Buoyant
       END
       DOMAIN MOTION:
         Option = Stationary
       END
       MESH DEFORMATION:
         Option = None
       END
       REFERENCE PRESSURE:
         Reference Pressure = 1 [atm]
       END
     END
     FLUID DEFINITION: Fluid 1
       Material = Water
       Option = Material Library
       MORPHOLOGY:
         Option = Continuous Fluid
       END
     END
     FLUID MODELS:
       COMBUSTION MODEL:
         Option = None
       END
       HEAT TRANSFER MODEL:
         Option = Thermal Energy
       END
       THERMAL RADIATION MODEL:
         Option = None
       END
       TURBULENCE MODEL:
         Option = k epsilon
       END
       TURBULENT WALL FUNCTIONS:
         Option = Scalable
       END
     END
   END
   OUTPUT CONTROL:
     RESULTS:
       File Compression Level = Default
       Option = Standard
     END
   END
   SOLVER CONTROL:
     Turbulence Numerics = High Resolution
     ADVECTION SCHEME:
       Option = High Resolution
     END
     CONVERGENCE CONTROL:
       Length Scale Option = Conservative
       Maximum Number of Iterations = 100
       Minimum Number of Iterations = 5
       Timescale Control = Auto Timescale
       Timescale Factor = 1.0
     END
     CONVERGENCE CRITERIA:
       Residual Target = 1.E-4
       Residual Type = RMS
     END
     DYNAMIC MODEL CONTROL:
       Global Dynamic Model Control = On
     END
   END
 END
 COMMAND FILE:
   Version = 19.1
   Results Version = 19.1
 END
 PARAMETERIZATION:
   INPUT FIELD: inMassFlow
     Expression Name = inMassFlow
     Method = Expression
   END
 END
 SIMULATION CONTROL:
   EXECUTION CONTROL:
     EXECUTABLE SELECTION:
       Double Precision = No
       Large Problem = No
     END
     INTERPOLATOR STEP CONTROL:
       Runtime Priority = Standard
       MEMORY CONTROL:
         Memory Allocation Factor = 1.0
       END
     END
     PARALLEL HOST LIBRARY:
       HOST DEFINITION: enpclab137
         Remote Host Name = ENPC-LAB137
         Host Architecture String = winnt-amd64
         Installation Root = C:\Program Files\ANSYS Inc\v%v\CFX
       END
     END
     PARTITIONER STEP CONTROL:
       Multidomain Option = Automatic
       Runtime Priority = Standard
       MEMORY CONTROL:
         Memory Allocation Factor = 1.0
       END
       PARTITION SMOOTHING:
         Maximum Partition Smoothing Sweeps = 100
         Option = Smooth
       END
       PARTITIONING TYPE:
         MeTiS Type = k-way
         Option = MeTiS
         Partition Size Rule = Automatic
       END
     END
     RUN DEFINITION:
       Run Mode = Full
       Solver Input File = Fluid Flow CFX.def
       Solver Results File = \
         H:/dos/CFD/CW/CFD-Static-Mixer/StaticMixerDX_pending/dp3_CFX_Solution\
         /Fluid Flow CFX_003.res
       INITIAL VALUES SPECIFICATION:
         INITIAL VALUES CONTROL:
           Use Mesh From = Solver Input File
           Continue History From = Workbench Initial Values
         END
         INITIAL VALUES: Workbench Initial Values
           Option = Results File
           File Name = Fluid Flow CFX_002.res
         END
       END
     END
     SOLVER STEP CONTROL:
       Runtime Priority = Standard
       MEMORY CONTROL:
         Memory Allocation Factor = 1.0
       END
       PARALLEL ENVIRONMENT:
         Number of Processes = 1
         Start Method = Serial
       END
     END
   END
 END
 
 
 +--------------------------------------------------------------------+
 |                                                                    |
 |                  Interpolation of Initial Values                   |
 |                                                                    |
 +--------------------------------------------------------------------+
 
 


 +--------------------------------------------------------------------+
 |                                                                    |
 |                    ANSYS(R) CFX(R) Interpolator                    |
 |                                                                    |
 | Release 19.1                                                       |
 | Build 19.1 2018-04-17T13:27:50.069000                              |
 | Tue Apr 17 15:02:11 GMTDT 2018                                     |
 |                                                                    |
 |                        Executable Attributes                       |
 |                                                                    |
 |           single-64bit-int32-archfort-optimised-std-lcomp          |
 |                                                                    |
 | (C) 1996-2018 ANSYS, Inc.                                          |
 |                                                                    |
 | All rights reserved. Unauthorized use, distribution or duplication |
 | is prohibited. This product is subject to U.S. laws governing      |
 | export and re-export. For full Legal Notice, see documentation.    |
 +--------------------------------------------------------------------+




 +--------------------------------------------------------------------+
 |                  Job Information at Start of Run                   |
 +--------------------------------------------------------------------+

 Run mode:       serial run

 Host computer:  ENPC-LAB137 (PID:11924)

 Job started:    Wed Dec  5 13:47:40 2018


 +--------------------------------------------------------------------+
 |        Memory Allocated for Run  (Actual usage may be less)        |
 +--------------------------------------------------------------------+

           | Real       | Integer    | Character | Logical  | Double
 ----------+------------+------------+-----------+----------+----------
 Mwords    |       2.46 |       2.28 |      0.20 |     0.01 |     0.14
 Mbytes    |       9.38 |       8.70 |      0.19 |     0.04 |     1.08
 ----------+------------+------------+-----------+----------+----------


 +--------------------------------------------------------------------+
 |                  Host Memory Information (Mbytes)                  |
 +--------------------------------------------------------------------+
 |          Host           |     System     |   Allocated    |   %    |
 +-------------------------+----------------+----------------+--------+
 | ENPC-LAB137             |     16240.97   |        19.40   |   0.12 |
 +-------------------------+----------------+----------------+--------+

 ======================================================================
               Interpolating Onto Domain "Default Domain"
 ======================================================================

 Total Number of Nodes in the Target Domain              =        47215
 Bounding Box Volume of the Target Mesh                  =  9.60000E+01


 Checking all source domains from the source file:
   Target mesh is different from domain "Default Domain".

 Searching for Candidate Source Domains:
   Domain "Default Domain"
     Number of Mapped Nodes                     =        43091 ( 91.3%)
     Bounding Box Overlap Volume                =  9.60000E+01 (100.0%)
   Setting Up Unmapped Nodes:
     Number of Unmapped Nodes                   =         4124 (  8.7%)

 Start interpolation of variables: 
   Source Domain Name                                    Mapped Nodes
   Default Domain                                        43091 ( 91.3%)

 +--------------------------------------------------------------------+
 |                     Variable Range Information                     |
 +--------------------------------------------------------------------+
 +--------------------------------------------------------------------+
 |      Variable Name                         |    min    |    max    |
 +--------------------------------------------------------------------+
 | Thermal Conductivity                       |  6.07E-01 |  6.07E-01 |
 | Courant Number                             |  1.14E+00 |  3.56E+01 |
 | Density                                    |  9.97E+02 |  9.97E+02 |
 | Static Enthalpy                            | -5.50E+04 |  7.05E+04 |
 | Static Entropy                             | -1.89E+02 |  2.30E+02 |
 | Pressure                                   | -8.97E+03 |  7.00E+04 |
 | Specific Heat Capacity at Constant Pressure|  4.18E+03 |  4.18E+03 |
 | Specific Heat Capacity at Constant Volume  |  4.18E+03 |  4.18E+03 |
 | Turbulence Eddy Dissipation                |  3.59E-04 |  1.90E+02 |
 | Turbulence Eddy Frequency                  |  6.30E+00 |  2.02E+03 |
 | Temperature                                |  2.85E+02 |  3.15E+02 |
 | Turbulence Kinetic Energy                  |  1.17E-04 |  4.26E+00 |
 | Velocity                                   |  1.86E-01 |  7.35E+00 |
 | Dynamic Viscosity                          |  8.90E-04 |  8.90E-04 |
 | Eddy Viscosity                             |  1.51E-03 |  3.17E+02 |
 +--------------------------------------------------------------------+

 +--------------------------------------------------------------------+
 |                 CPU Requirements of Interpolation                  |
 +--------------------------------------------------------------------+

 Interpolation Step              Time    Percentage
                                (secs.   %total)
 ----------------------------------------------------------------------
 Tree Setup                     3.20E-01    8.1 %
 Interpolation                  1.56E+00   39.3 %
 Unmatched Nodes                1.08E-01    2.7 %
 Miscellaneous                  1.97E+00   49.8 %
                                --------
 Total                          3.95E+00

 +--------------------------------------------------------------------+
 |                   Job Information at End of Run                    |
 +--------------------------------------------------------------------+

 Host computer:  ENPC-LAB137 (PID:11924)

 Job finished:   Wed Dec  5 13:47:43 2018

 Total wall clock time: 3.961E+00 seconds
             or: (          0:         0:         0:     3.961 )
                 (       Days:     Hours:   Minutes:   Seconds )

 
 +--------------------------------------------------------------------+
 |                                                                    |
 |                               Solver                               |
 |                                                                    |
 +--------------------------------------------------------------------+
 



 +--------------------------------------------------------------------+
 |                                                                    |
 |                       ANSYS(R) CFX(R) Solver                       |
 |                                                                    |
 | Release 19.1                                                       |
 | Build 19.1 2018-04-17T13:27:50.069000                              |
 | Tue Apr 17 15:02:11 GMTDT 2018                                     |
 |                                                                    |
 |                        Executable Attributes                       |
 |                                                                    |
 |           single-64bit-int32-archfort-optimised-std-lcomp          |
 |                                                                    |
 | (C) 1996-2018 ANSYS, Inc.                                          |
 |                                                                    |
 | All rights reserved. Unauthorized use, distribution or duplication |
 | is prohibited. This product is subject to U.S. laws governing      |
 | export and re-export. For full Legal Notice, see documentation.    |
 +--------------------------------------------------------------------+




 +--------------------------------------------------------------------+
 |                  Job Information at Start of Run                   |
 +--------------------------------------------------------------------+

 Run mode:       serial run

 Host computer:  ENPC-LAB137 (PID:960)

 Job started:    Wed Dec  5 13:47:48 2018

 +--------------------------------------------------------------------+
 |                        License Information                         |
 +--------------------------------------------------------------------+
 
 License Cap:    ANSYS CFX Solver (Max 128K Nodes)
 License ID:     VIGO_campus_bath_ac_uk-SYSTEM-1456-451870


 +--------------------------------------------------------------------+
 |        Memory Allocated for Run  (Actual usage may be less)        |
 +--------------------------------------------------------------------+

           | Real       | Integer    | Character | Logical  | Double
 ----------+------------+------------+-----------+----------+----------
 Mwords    |      21.35 |       7.28 |      7.26 |     0.12 |     0.91
 Mbytes    |      81.44 |      27.76 |      6.93 |     0.46 |     6.93
 ----------+------------+------------+-----------+----------+----------


 +--------------------------------------------------------------------+
 |                  Host Memory Information (Mbytes)                  |
 +--------------------------------------------------------------------+
 |          Host           |     System     |   Allocated    |   %    |
 +-------------------------+----------------+----------------+--------+
 | ENPC-LAB137             |     16240.97   |       123.51   |   0.76 |
 +-------------------------+----------------+----------------+--------+


 +--------------------------------------------------------------------+
 |                     ****** Notice ******                           |
 | The Wall Heat Transfer Coefficient written to the results file for |
 | any turbulent phase with heat transfer is based on the turbulent   |
 | wall function coefficient. It is consistent with the Wall Heat Flux|
 | the wall temperature, and the Wall Adjacent Temperature            |
 | (near-wall temperature).  If you would like it to be based on a    |
 | user-specified bulk temperature instead, please set the expert     |
 | parameter "tbulk for htc = <value>".                               |
 +--------------------------------------------------------------------+

 +--------------------------------------------------------------------+
 |                      Topology Simplification                       |
 +--------------------------------------------------------------------+

 +--------------------------------------------------------------------+
 |                       ****** Warning ******                        |
 |                                                                    |
 | Topology simplification is activated with the following            |
 | restrictions:                                                      |
 |                                                                    |
 | - Mesh regions referenced only within User Fortran and NOT         |
 |   in the command file will cause the solver to stop.               |
 | - The solver will stop during any "Edit Run in Progress" step      |
 |   if new 2D regions are referenced.                                |
 +--------------------------------------------------------------------+

 +--------------------------------------------------------------------+
 |                          Mesh Statistics                           |
 +--------------------------------------------------------------------+
 | Domain Name          | Orthog. Angle | Exp. Factor  | Aspect Ratio |
 +----------------------+---------------+--------------+--------------+
 |                      | Minimum [deg] |   Maximum    |    Maximum   |
 +----------------------+---------------+--------------+--------------+
 | Default Domain       |       37.1 ok |         9 ok |        24 OK |
 +----------------------+---------------+--------------+--------------+
 |                      |  %!  %ok  %OK | %!  %ok  %OK | %!  %ok  %OK |
 +----------------------+---------------+--------------+--------------+
 | Default Domain       |   0   <1  100 |  0   <1  100 |  0    0  100 |
 +----------------------+---------------+--------------+--------------+

 Domain Name : Default Domain

     Total Number of Nodes                                =       47215

     Total Number of Elements                             =      183805
         Total Number of Tetrahedrons                     =      143380
         Total Number of Prisms                           =       40425

     Total Number of Faces                                =       10893

 +--------------------------------------------------------------------+
 |      Initial Conditions Supplied by Fields in the Input Files      |
 +--------------------------------------------------------------------+

 Domain Name : Default Domain
     Courant Number
     Eddy Viscosity
     Pressure
     Specific Heat Capacity at Constant Pressure
     Static Enthalpy
     Static Entropy
     Temperature
     Turbulence Eddy Dissipation
     Turbulence Eddy Frequency
     Turbulence Kinetic Energy
     Velocity

 +--------------------------------------------------------------------+
 |                     Average Scale Information                      |
 +--------------------------------------------------------------------+

 Domain Name : Default Domain
     Global Length                                         = 3.2208E+00
     Minimum Extent                                        = 4.0000E+00
     Maximum Extent                                        = 6.0000E+00
     Density                                               = 9.9700E+02
     Dynamic Viscosity                                     = 8.8990E-04
     Velocity                                              = 5.3313E+00
     Advection Time                                        = 6.0413E-01
     Reynolds Number                                       = 1.9237E+07
     Thermal Conductivity                                  = 6.0690E-01
     Specific Heat Capacity at Constant Pressure           = 4.1817E+03
     Prandtl Number                                        = 6.1316E+00
     Temperature Range                                     = 3.0021E+01

 +--------------------------------------------------------------------+
 |                Checking for Isolated Fluid Regions                 |
 +--------------------------------------------------------------------+
 
 No isolated fluid regions were found.

 +--------------------------------------------------------------------+
 |              The Equations Solved in This Calculation              |
 +--------------------------------------------------------------------+

 Subsystem : Momentum and Mass

   U-Mom
   V-Mom
   W-Mom
   P-Mass

 Subsystem : Heat Transfer

   H-Energy

 Subsystem : TurbKE and Diss.K

   K-TurbKE
   E-Diss.K
                   
 CFD Solver started: Wed Dec  5 13:47:52 2018


 +--------------------------------------------------------------------+
 |                       Convergence History                          |
 +--------------------------------------------------------------------+

 ======================================================================
 |                        Timescale Information                       |
 ----------------------------------------------------------------------
 |       Equation       |         Type          |      Timescale      |
 +----------------------+-----------------------+---------------------+
 | U-Mom                | Auto Timescale        |     1.87695E-01     |
 | V-Mom                | Auto Timescale        |     1.87695E-01     |
 | W-Mom                | Auto Timescale        |     1.87695E-01     |
 +----------------------+-----------------------+---------------------+
 | H-Energy             | Auto Timescale        |     1.87695E-01     |
 +----------------------+-----------------------+---------------------+
 | K-TurbKE             | Auto Timescale        |     1.87695E-01     |
 | E-Diss.K             | Auto Timescale        |     1.87695E-01     |
 +----------------------+-----------------------+---------------------+

 ======================================================================
 OUTER LOOP ITERATION =  185 (    1) CPU SECONDS = 1.109E+02 (3.990E+00)
 ----------------------------------------------------------------------
 |       Equation       | Rate | RMS Res | Max Res |  Linear Solution |
 +----------------------+------+---------+---------+------------------+
 | U-Mom                | 0.00 | 2.6E-03 | 4.6E-02 |       7.8E-02  OK|
 | V-Mom                | 0.00 | 2.7E-03 | 5.2E-02 |       7.9E-02  OK|
 | W-Mom                | 0.00 | 1.5E-03 | 2.4E-02 |       6.2E-02  OK|
 | P-Mass               | 0.00 | 1.3E-03 | 3.1E-02 |  5.1  5.2E-02  OK|
 +----------------------+------+---------+---------+------------------+
 | H-Energy             | 0.00 | 4.9E-03 | 1.3E-01 |  5.4  3.2E-02  OK|
 +----------------------+------+---------+---------+------------------+
 | K-TurbKE             | 0.00 | 4.6E-03 | 6.3E-02 |  5.4  3.6E-02  OK|
 | E-Diss.K             | 0.00 | 3.0E-02 | 9.0E-01 | 12.8  5.1E-04  OK|
 +----------------------+------+---------+---------+------------------+

 ======================================================================
 |                        Timescale Information                       |
 ----------------------------------------------------------------------
 |       Equation       |         Type          |      Timescale      |
 +----------------------+-----------------------+---------------------+
 | U-Mom                | Auto Timescale        |     1.90378E-01     |
 | V-Mom                | Auto Timescale        |     1.90378E-01     |
 | W-Mom                | Auto Timescale        |     1.90378E-01     |
 +----------------------+-----------------------+---------------------+
 | H-Energy             | Auto Timescale        |     1.90378E-01     |
 +----------------------+-----------------------+---------------------+
 | K-TurbKE             | Auto Timescale        |     1.90378E-01     |
 | E-Diss.K             | Auto Timescale        |     1.90378E-01     |
 +----------------------+-----------------------+---------------------+

 ======================================================================
 OUTER LOOP ITERATION =  186 (    2) CPU SECONDS = 1.130E+02 (6.001E+00)
 ----------------------------------------------------------------------
 |       Equation       | Rate | RMS Res | Max Res |  Linear Solution |
 +----------------------+------+---------+---------+------------------+
 | U-Mom                | 0.57 | 1.5E-03 | 3.2E-02 |       8.4E-02  OK|
 | V-Mom                | 0.49 | 1.3E-03 | 2.1E-02 |       8.4E-02  OK|
 | W-Mom                | 0.50 | 7.6E-04 | 1.2E-02 |       8.5E-02  OK|
 | P-Mass               | 0.35 | 4.4E-04 | 9.2E-03 |  9.2  3.2E-02  OK|
 +----------------------+------+---------+---------+------------------+
 | H-Energy             | 0.31 | 1.5E-03 | 5.1E-02 |  5.4  6.6E-02  OK|
 +----------------------+------+---------+---------+------------------+
 | K-TurbKE             | 2.77 | 1.3E-02 | 1.5E-01 |  5.4  2.9E-02  OK|
 | E-Diss.K             | 1.58 | 4.7E-02 | 1.4E+00 |  7.0  4.4E-03  OK|
 +----------------------+------+---------+---------+------------------+

 ======================================================================
 OUTER LOOP ITERATION =  187 (    3) CPU SECONDS = 1.148E+02 (7.818E+00)
 ----------------------------------------------------------------------
 |       Equation       | Rate | RMS Res | Max Res |  Linear Solution |
 +----------------------+------+---------+---------+------------------+
 | U-Mom                | 0.76 | 1.1E-03 | 4.6E-02 |       8.3E-02  OK|
 | V-Mom                | 0.58 | 7.7E-04 | 1.5E-02 |       8.7E-02  OK|
 | W-Mom                | 0.65 | 5.0E-04 | 1.4E-02 |       7.6E-02  OK|
 | P-Mass               | 0.47 | 2.1E-04 | 3.6E-03 |  9.2  3.9E-02  OK|
 +----------------------+------+---------+---------+------------------+
 | H-Energy             | 0.74 | 1.1E-03 | 4.7E-02 |  5.4  5.1E-02  OK|
 +----------------------+------+---------+---------+------------------+
 | K-TurbKE             | 0.60 | 7.7E-03 | 9.3E-02 |  5.4  4.4E-02  OK|
 | E-Diss.K             | 0.16 | 7.6E-03 | 3.0E-01 | 13.0  1.0E-03  OK|
 +----------------------+------+---------+---------+------------------+

 ======================================================================
 OUTER LOOP ITERATION =  188 (    4) CPU SECONDS = 1.166E+02 (9.649E+00)
 ----------------------------------------------------------------------
 |       Equation       | Rate | RMS Res | Max Res |  Linear Solution |
 +----------------------+------+---------+---------+------------------+
 | U-Mom                | 0.76 | 8.5E-04 | 4.0E-02 |       6.1E-02  OK|
 | V-Mom                | 0.69 | 5.3E-04 | 1.4E-02 |       6.5E-02  OK|
 | W-Mom                | 0.77 | 3.8E-04 | 1.3E-02 |       9.0E-02  OK|
 | P-Mass               | 0.64 | 1.3E-04 | 3.4E-03 |  9.2  3.8E-02  OK|
 +----------------------+------+---------+---------+------------------+
 | H-Energy             | 0.81 | 9.0E-04 | 2.6E-02 |  5.4  6.4E-02  OK|
 +----------------------+------+---------+---------+------------------+
 | K-TurbKE             | 0.59 | 4.5E-03 | 6.0E-02 |  5.4  5.0E-02  OK|
 | E-Diss.K             | 0.65 | 5.0E-03 | 9.5E-02 |  7.0  1.7E-02  OK|
 +----------------------+------+---------+---------+------------------+

 ======================================================================
 OUTER LOOP ITERATION =  189 (    5) CPU SECONDS = 1.184E+02 (1.147E+01)
 ----------------------------------------------------------------------
 |       Equation       | Rate | RMS Res | Max Res |  Linear Solution |
 +----------------------+------+---------+---------+------------------+
 | U-Mom                | 0.72 | 6.2E-04 | 3.0E-02 |       4.8E-02  OK|
 | V-Mom                | 0.79 | 4.2E-04 | 1.2E-02 |       5.2E-02  OK|
 | W-Mom                | 0.76 | 2.9E-04 | 9.9E-03 |       9.7E-02  OK|
 | P-Mass               | 0.60 | 8.0E-05 | 2.6E-03 |  9.2  4.1E-02  OK|
 +----------------------+------+---------+---------+------------------+
 | H-Energy             | 0.82 | 7.4E-04 | 2.7E-02 |  5.4  7.1E-02  OK|
 +----------------------+------+---------+---------+------------------+
 | K-TurbKE             | 0.58 | 2.6E-03 | 3.0E-02 |  5.4  3.3E-02  OK|
 | E-Diss.K             | 2.44 | 1.2E-02 | 2.8E-01 | 13.0  1.0E-03  OK|
 +----------------------+------+---------+---------+------------------+

 ======================================================================
 OUTER LOOP ITERATION =  190 (    6) CPU SECONDS = 1.202E+02 (1.330E+01)
 ----------------------------------------------------------------------
 |       Equation       | Rate | RMS Res | Max Res |  Linear Solution |
 +----------------------+------+---------+---------+------------------+
 | U-Mom                | 0.66 | 4.1E-04 | 1.7E-02 |       7.5E-02  OK|
 | V-Mom                | 0.76 | 3.2E-04 | 9.7E-03 |       7.8E-02  OK|
 | W-Mom                | 0.76 | 2.2E-04 | 7.4E-03 |       6.7E-02  OK|
 | P-Mass               | 0.69 | 5.5E-05 | 1.7E-03 |  9.2  4.8E-02  OK|
 +----------------------+------+---------+---------+------------------+
 | H-Energy             | 0.78 | 5.8E-04 | 1.3E-02 |  5.4  7.2E-02  OK|
 +----------------------+------+---------+---------+------------------+
 | K-TurbKE             | 0.44 | 1.2E-03 | 1.1E-02 |  5.4  4.2E-02  OK|
 | E-Diss.K             | 0.23 | 2.8E-03 | 7.0E-02 | 13.0  1.6E-03  OK|
 +----------------------+------+---------+---------+------------------+

 ======================================================================
 |                        Timescale Information                       |
 ----------------------------------------------------------------------
 |       Equation       |         Type          |      Timescale      |
 +----------------------+-----------------------+---------------------+
 | U-Mom                | Auto Timescale        |     1.93993E-01     |
 | V-Mom                | Auto Timescale        |     1.93993E-01     |
 | W-Mom                | Auto Timescale        |     1.93993E-01     |
 +----------------------+-----------------------+---------------------+
 | H-Energy             | Auto Timescale        |     1.93993E-01     |
 +----------------------+-----------------------+---------------------+
 | K-TurbKE             | Auto Timescale        |     1.93993E-01     |
 | E-Diss.K             | Auto Timescale        |     1.93993E-01     |
 +----------------------+-----------------------+---------------------+

 ======================================================================
 OUTER LOOP ITERATION =  191 (    7) CPU SECONDS = 1.221E+02 (1.513E+01)
 ----------------------------------------------------------------------
 |       Equation       | Rate | RMS Res | Max Res |  Linear Solution |
 +----------------------+------+---------+---------+------------------+
 | U-Mom                | 0.73 | 3.0E-04 | 9.8E-03 |       9.9E-02  OK|
 | V-Mom                | 0.92 | 2.9E-04 | 8.7E-03 |       9.9E-02  OK|
 | W-Mom                | 0.86 | 1.9E-04 | 6.8E-03 |       8.4E-02  OK|
 | P-Mass               | 0.79 | 4.4E-05 | 1.2E-03 |  9.2  8.0E-02  OK|
 +----------------------+------+---------+---------+------------------+
 | H-Energy             | 0.84 | 4.8E-04 | 7.3E-03 |  5.4  7.1E-02  OK|
 +----------------------+------+---------+---------+------------------+
 | K-TurbKE             | 0.74 | 8.5E-04 | 1.1E-02 |  5.4  5.8E-02  OK|
 | E-Diss.K             | 0.87 | 2.4E-03 | 7.3E-02 | 13.0  1.2E-03  OK|
 +----------------------+------+---------+---------+------------------+

 ======================================================================
 OUTER LOOP ITERATION =  192 (    8) CPU SECONDS = 1.239E+02 (1.695E+01)
 ----------------------------------------------------------------------
 |       Equation       | Rate | RMS Res | Max Res |  Linear Solution |
 +----------------------+------+---------+---------+------------------+
 | U-Mom                | 0.79 | 2.3E-04 | 5.1E-03 |       1.1E-01  ok|
 | V-Mom                | 0.92 | 2.7E-04 | 8.0E-03 |       1.0E-01  ok|
 | W-Mom                | 0.91 | 1.7E-04 | 7.0E-03 |       1.0E-01  ok|
 | P-Mass               | 1.00 | 4.4E-05 | 9.2E-04 |  9.2  9.6E-02  OK|
 +----------------------+------+---------+---------+------------------+
 | H-Energy             | 0.86 | 4.2E-04 | 5.5E-03 |  5.4  7.2E-02  OK|
 +----------------------+------+---------+---------+------------------+
 | K-TurbKE             | 0.56 | 4.8E-04 | 5.5E-03 |  5.4  8.1E-02  OK|
 | E-Diss.K             | 0.17 | 4.1E-04 | 1.1E-02 | 13.0  2.2E-03  OK|
 +----------------------+------+---------+---------+------------------+

 ======================================================================
 OUTER LOOP ITERATION =  193 (    9) CPU SECONDS = 1.257E+02 (1.876E+01)
 ----------------------------------------------------------------------
 |       Equation       | Rate | RMS Res | Max Res |  Linear Solution |
 +----------------------+------+---------+---------+------------------+
 | U-Mom                | 0.85 | 2.0E-04 | 4.8E-03 |       4.5E-02  OK|
 | V-Mom                | 0.93 | 2.5E-04 | 7.4E-03 |       4.3E-02  OK|
 | W-Mom                | 0.95 | 1.7E-04 | 6.9E-03 |       7.0E-02  OK|
 | P-Mass               | 0.98 | 4.3E-05 | 7.1E-04 | 13.3  4.8E-02  OK|
 +----------------------+------+---------+---------+------------------+
 | H-Energy             | 0.88 | 3.7E-04 | 4.8E-03 |  5.4  7.1E-02  OK|
 +----------------------+------+---------+---------+------------------+
 | K-TurbKE             | 0.86 | 4.1E-04 | 6.1E-03 |  5.4  8.5E-02  OK|
 | E-Diss.K             | 1.57 | 6.4E-04 | 2.8E-02 | 13.0  2.2E-03  OK|
 +----------------------+------+---------+---------+------------------+

 ======================================================================
 OUTER LOOP ITERATION =  194 (   10) CPU SECONDS = 1.276E+02 (2.068E+01)
 ----------------------------------------------------------------------
 |       Equation       | Rate | RMS Res | Max Res |  Linear Solution |
 +----------------------+------+---------+---------+------------------+
 | U-Mom                | 0.90 | 1.8E-04 | 5.3E-03 |       4.2E-02  OK|
 | V-Mom                | 0.94 | 2.4E-04 | 6.8E-03 |       3.9E-02  OK|
 | W-Mom                | 0.97 | 1.6E-04 | 6.6E-03 |       6.6E-02  OK|
 | P-Mass               | 1.07 | 4.6E-05 | 6.0E-04 | 13.3  4.2E-02  OK|
 +----------------------+------+---------+---------+------------------+
 | H-Energy             | 0.89 | 3.3E-04 | 4.9E-03 |  5.4  7.2E-02  OK|
 +----------------------+------+---------+---------+------------------+
 | K-TurbKE             | 1.01 | 4.2E-04 | 5.9E-03 |  5.4  8.0E-02  OK|
 | E-Diss.K             | 2.00 | 1.3E-03 | 4.1E-02 | 13.0  1.3E-03  OK|
 +----------------------+------+---------+---------+------------------+

 ======================================================================
 OUTER LOOP ITERATION =  195 (   11) CPU SECONDS = 1.295E+02 (2.255E+01)
 ----------------------------------------------------------------------
 |       Equation       | Rate | RMS Res | Max Res |  Linear Solution |
 +----------------------+------+---------+---------+------------------+
 | U-Mom                | 0.95 | 1.7E-04 | 6.4E-03 |       4.1E-02  OK|
 | V-Mom                | 0.96 | 2.3E-04 | 6.5E-03 |       3.8E-02  OK|
 | W-Mom                | 0.97 | 1.6E-04 | 6.5E-03 |       6.6E-02  OK|
 | P-Mass               | 0.93 | 4.3E-05 | 4.7E-04 | 13.3  4.4E-02  OK|
 +----------------------+------+---------+---------+------------------+
 | H-Energy             | 0.90 | 2.9E-04 | 4.6E-03 |  5.4  7.3E-02  OK|
 +----------------------+------+---------+---------+------------------+
 | K-TurbKE             | 0.94 | 3.9E-04 | 5.5E-03 |  5.4  7.7E-02  OK|
 | E-Diss.K             | 0.74 | 9.5E-04 | 2.6E-02 | 13.0  1.6E-03  OK|
 +----------------------+------+---------+---------+------------------+

 ======================================================================
 |                        Timescale Information                       |
 ----------------------------------------------------------------------
 |       Equation       |         Type          |      Timescale      |
 +----------------------+-----------------------+---------------------+
 | U-Mom                | Auto Timescale        |     1.90548E-01     |
 | V-Mom                | Auto Timescale        |     1.90548E-01     |
 | W-Mom                | Auto Timescale        |     1.90548E-01     |
 +----------------------+-----------------------+---------------------+
 | H-Energy             | Auto Timescale        |     1.90548E-01     |
 +----------------------+-----------------------+---------------------+
 | K-TurbKE             | Auto Timescale        |     1.90548E-01     |
 | E-Diss.K             | Auto Timescale        |     1.90548E-01     |
 +----------------------+-----------------------+---------------------+

 ======================================================================
 OUTER LOOP ITERATION =  196 (   12) CPU SECONDS = 1.315E+02 (2.455E+01)
 ----------------------------------------------------------------------
 |       Equation       | Rate | RMS Res | Max Res |  Linear Solution |
 +----------------------+------+---------+---------+------------------+
 | U-Mom                | 0.97 | 1.6E-04 | 6.9E-03 |       4.0E-02  OK|
 | V-Mom                | 0.95 | 2.2E-04 | 6.3E-03 |       3.7E-02  OK|
 | W-Mom                | 0.96 | 1.5E-04 | 6.3E-03 |       6.5E-02  OK|
 | P-Mass               | 0.92 | 3.9E-05 | 4.2E-04 | 13.3  4.5E-02  OK|
 +----------------------+------+---------+---------+------------------+
 | H-Energy             | 0.90 | 2.6E-04 | 4.3E-03 |  5.4  7.1E-02  OK|
 +----------------------+------+---------+---------+------------------+
 | K-TurbKE             | 0.98 | 3.8E-04 | 4.8E-03 |  5.4  7.2E-02  OK|
 | E-Diss.K             | 0.89 | 8.4E-04 | 2.4E-02 | 13.0  1.8E-03  OK|
 +----------------------+------+---------+---------+------------------+

 ======================================================================
 OUTER LOOP ITERATION =  197 (   13) CPU SECONDS = 1.334E+02 (2.649E+01)
 ----------------------------------------------------------------------
 |       Equation       | Rate | RMS Res | Max Res |  Linear Solution |
 +----------------------+------+---------+---------+------------------+
 | U-Mom                | 0.97 | 1.6E-04 | 8.5E-03 |       3.9E-02  OK|
 | V-Mom                | 0.95 | 2.1E-04 | 6.4E-03 |       3.6E-02  OK|
 | W-Mom                | 0.95 | 1.4E-04 | 6.1E-03 |       6.6E-02  OK|
 | P-Mass               | 0.92 | 3.6E-05 | 3.7E-04 | 13.3  4.6E-02  OK|
 +----------------------+------+---------+---------+------------------+
 | H-Energy             | 0.90 | 2.4E-04 | 3.8E-03 |  5.4  7.1E-02  OK|
 +----------------------+------+---------+---------+------------------+
 | K-TurbKE             | 0.99 | 3.8E-04 | 4.1E-03 |  5.4  6.9E-02  OK|
 | E-Diss.K             | 1.04 | 8.8E-04 | 2.4E-02 | 13.0  1.8E-03  OK|
 +----------------------+------+---------+---------+------------------+

 ======================================================================
 OUTER LOOP ITERATION =  198 (   14) CPU SECONDS = 1.354E+02 (2.842E+01)
 ----------------------------------------------------------------------
 |       Equation       | Rate | RMS Res | Max Res |  Linear Solution |
 +----------------------+------+---------+---------+------------------+
 | U-Mom                | 0.98 | 1.6E-04 | 9.7E-03 |       3.9E-02  OK|
 | V-Mom                | 0.95 | 2.0E-04 | 7.3E-03 |       3.6E-02  OK|
 | W-Mom                | 0.94 | 1.4E-04 | 5.9E-03 |       6.9E-02  OK|
 | P-Mass               | 0.92 | 3.3E-05 | 3.1E-04 | 13.3  4.6E-02  OK|
 +----------------------+------+---------+---------+------------------+
 | H-Energy             | 0.90 | 2.1E-04 | 3.7E-03 |  5.4  7.1E-02  OK|
 +----------------------+------+---------+---------+------------------+
 | K-TurbKE             | 0.99 | 3.8E-04 | 3.4E-03 |  5.4  6.7E-02  OK|
 | E-Diss.K             | 0.91 | 8.0E-04 | 2.0E-02 | 13.0  1.8E-03  OK|
 +----------------------+------+---------+---------+------------------+

 ======================================================================
 OUTER LOOP ITERATION =  199 (   15) CPU SECONDS = 1.373E+02 (3.035E+01)
 ----------------------------------------------------------------------
 |       Equation       | Rate | RMS Res | Max Res |  Linear Solution |
 +----------------------+------+---------+---------+------------------+
 | U-Mom                | 0.98 | 1.5E-04 | 1.1E-02 |       3.8E-02  OK|
 | V-Mom                | 0.95 | 1.9E-04 | 7.9E-03 |       3.6E-02  OK|
 | W-Mom                | 0.94 | 1.3E-04 | 5.7E-03 |       7.4E-02  OK|
 | P-Mass               | 0.92 | 3.1E-05 | 3.0E-04 | 13.3  4.7E-02  OK|
 +----------------------+------+---------+---------+------------------+
 | H-Energy             | 0.90 | 1.9E-04 | 4.0E-03 |  5.4  7.1E-02  OK|
 +----------------------+------+---------+---------+------------------+
 | K-TurbKE             | 0.98 | 3.7E-04 | 3.1E-03 |  5.4  6.6E-02  OK|
 | E-Diss.K             | 0.91 | 7.3E-04 | 1.7E-02 | 13.0  1.9E-03  OK|
 +----------------------+------+---------+---------+------------------+

 ======================================================================
 OUTER LOOP ITERATION =  200 (   16) CPU SECONDS = 1.393E+02 (3.233E+01)
 ----------------------------------------------------------------------
 |       Equation       | Rate | RMS Res | Max Res |  Linear Solution |
 +----------------------+------+---------+---------+------------------+
 | U-Mom                | 0.98 | 1.5E-04 | 1.1E-02 |       3.8E-02  OK|
 | V-Mom                | 0.95 | 1.8E-04 | 8.4E-03 |       3.6E-02  OK|
 | W-Mom                | 0.93 | 1.2E-04 | 5.4E-03 |       7.9E-02  OK|
 | P-Mass               | 0.93 | 2.8E-05 | 2.9E-04 | 13.3  4.8E-02  OK|
 +----------------------+------+---------+---------+------------------+
 | H-Energy             | 0.90 | 1.7E-04 | 4.1E-03 |  5.4  7.1E-02  OK|
 +----------------------+------+---------+---------+------------------+
 | K-TurbKE             | 0.98 | 3.6E-04 | 2.4E-03 |  5.4  6.5E-02  OK|
 | E-Diss.K             | 0.95 | 6.9E-04 | 1.6E-02 | 13.0  1.9E-03  OK|
 +----------------------+------+---------+---------+------------------+

 ======================================================================
 |                        Timescale Information                       |
 ----------------------------------------------------------------------
 |       Equation       |         Type          |      Timescale      |
 +----------------------+-----------------------+---------------------+
 | U-Mom                | Auto Timescale        |     1.86274E-01     |
 | V-Mom                | Auto Timescale        |     1.86274E-01     |
 | W-Mom                | Auto Timescale        |     1.86274E-01     |
 +----------------------+-----------------------+---------------------+
 | H-Energy             | Auto Timescale        |     1.86274E-01     |
 +----------------------+-----------------------+---------------------+
 | K-TurbKE             | Auto Timescale        |     1.86274E-01     |
 | E-Diss.K             | Auto Timescale        |     1.86274E-01     |
 +----------------------+-----------------------+---------------------+

 ======================================================================
 OUTER LOOP ITERATION =  201 (   17) CPU SECONDS = 1.412E+02 (3.426E+01)
 ----------------------------------------------------------------------
 |       Equation       | Rate | RMS Res | Max Res |  Linear Solution |
 +----------------------+------+---------+---------+------------------+
 | U-Mom                | 0.98 | 1.5E-04 | 1.2E-02 |       3.7E-02  OK|
 | V-Mom                | 0.95 | 1.7E-04 | 8.8E-03 |       3.5E-02  OK|
 | W-Mom                | 0.93 | 1.1E-04 | 5.1E-03 |       8.4E-02  OK|
 | P-Mass               | 0.93 | 2.7E-05 | 2.8E-04 | 13.3  4.8E-02  OK|
 +----------------------+------+---------+---------+------------------+
 | H-Energy             | 0.91 | 1.6E-04 | 4.0E-03 |  5.4  7.1E-02  OK|
 +----------------------+------+---------+---------+------------------+
 | K-TurbKE             | 0.98 | 3.5E-04 | 2.1E-03 |  5.4  6.3E-02  OK|
 | E-Diss.K             | 0.93 | 6.4E-04 | 1.5E-02 | 13.0  1.9E-03  OK|
 +----------------------+------+---------+---------+------------------+

 ======================================================================
 OUTER LOOP ITERATION =  202 (   18) CPU SECONDS = 1.431E+02 (3.619E+01)
 ----------------------------------------------------------------------
 |       Equation       | Rate | RMS Res | Max Res |  Linear Solution |
 +----------------------+------+---------+---------+------------------+
 | U-Mom                | 0.97 | 1.4E-04 | 1.2E-02 |       3.7E-02  OK|
 | V-Mom                | 0.96 | 1.6E-04 | 9.1E-03 |       3.5E-02  OK|
 | W-Mom                | 0.93 | 1.0E-04 | 4.8E-03 |       9.0E-02  OK|
 | P-Mass               | 0.94 | 2.5E-05 | 2.7E-04 | 13.3  4.9E-02  OK|
 +----------------------+------+---------+---------+------------------+
 | H-Energy             | 0.91 | 1.4E-04 | 3.7E-03 |  5.4  7.4E-02  OK|
 +----------------------+------+---------+---------+------------------+
 | K-TurbKE             | 0.97 | 3.4E-04 | 2.3E-03 |  5.4  6.3E-02  OK|
 | E-Diss.K             | 0.94 | 6.0E-04 | 1.3E-02 | 13.0  1.9E-03  OK|
 +----------------------+------+---------+---------+------------------+

 ======================================================================
 OUTER LOOP ITERATION =  203 (   19) CPU SECONDS = 1.451E+02 (3.812E+01)
 ----------------------------------------------------------------------
 |       Equation       | Rate | RMS Res | Max Res |  Linear Solution |
 +----------------------+------+---------+---------+------------------+
 | U-Mom                | 0.97 | 1.4E-04 | 1.1E-02 |       3.6E-02  OK|
 | V-Mom                | 0.96 | 1.5E-04 | 9.4E-03 |       3.5E-02  OK|
 | W-Mom                | 0.92 | 9.4E-05 | 4.7E-03 |       9.6E-02  OK|
 | P-Mass               | 0.94 | 2.3E-05 | 2.6E-04 | 13.3  5.0E-02  OK|
 +----------------------+------+---------+---------+------------------+
 | H-Energy             | 0.92 | 1.3E-04 | 3.4E-03 |  5.4  7.7E-02  OK|
 +----------------------+------+---------+---------+------------------+
 | K-TurbKE             | 0.97 | 3.3E-04 | 2.5E-03 |  5.4  6.3E-02  OK|
 | E-Diss.K             | 0.95 | 5.7E-04 | 1.2E-02 | 13.0  1.9E-03  OK|
 +----------------------+------+---------+---------+------------------+

 ======================================================================
 OUTER LOOP ITERATION =  204 (   20) CPU SECONDS = 1.471E+02 (4.019E+01)
 ----------------------------------------------------------------------
 |       Equation       | Rate | RMS Res | Max Res |  Linear Solution |
 +----------------------+------+---------+---------+------------------+
 | U-Mom                | 0.97 | 1.3E-04 | 1.2E-02 |       3.6E-02  OK|
 | V-Mom                | 0.96 | 1.5E-04 | 9.8E-03 |       3.5E-02  OK|
 | W-Mom                | 0.93 | 8.7E-05 | 4.6E-03 |       1.0E-01  ok|
 | P-Mass               | 0.95 | 2.2E-05 | 2.6E-04 | 13.3  5.1E-02  OK|
 +----------------------+------+---------+---------+------------------+
 | H-Energy             | 0.92 | 1.2E-04 | 3.3E-03 |  5.4  8.1E-02  OK|
 +----------------------+------+---------+---------+------------------+
 | K-TurbKE             | 0.96 | 3.2E-04 | 2.7E-03 |  5.4  6.3E-02  OK|
 | E-Diss.K             | 0.95 | 5.4E-04 | 1.2E-02 | 13.0  1.9E-03  OK|
 +----------------------+------+---------+---------+------------------+

 ======================================================================
 OUTER LOOP ITERATION =  205 (   21) CPU SECONDS = 1.491E+02 (4.215E+01)
 ----------------------------------------------------------------------
 |       Equation       | Rate | RMS Res | Max Res |  Linear Solution |
 +----------------------+------+---------+---------+------------------+
 | U-Mom                | 0.98 | 1.3E-04 | 1.2E-02 |       3.6E-02  OK|
 | V-Mom                | 0.97 | 1.4E-04 | 1.0E-02 |       3.5E-02  OK|
 | W-Mom                | 0.93 | 8.1E-05 | 4.4E-03 |       1.1E-01  ok|
 | P-Mass               | 0.95 | 2.1E-05 | 2.6E-04 | 13.3  5.2E-02  OK|
 +----------------------+------+---------+---------+------------------+
 | H-Energy             | 0.93 | 1.1E-04 | 3.4E-03 |  5.4  8.4E-02  OK|
 +----------------------+------+---------+---------+------------------+
 | K-TurbKE             | 0.96 | 3.1E-04 | 2.7E-03 |  5.4  6.2E-02  OK|
 | E-Diss.K             | 0.95 | 5.1E-04 | 1.1E-02 | 13.0  1.9E-03  OK|
 +----------------------+------+---------+---------+------------------+

 ======================================================================
 |                        Timescale Information                       |
 ----------------------------------------------------------------------
 |       Equation       |         Type          |      Timescale      |
 +----------------------+-----------------------+---------------------+
 | U-Mom                | Auto Timescale        |     1.82285E-01     |
 | V-Mom                | Auto Timescale        |     1.82285E-01     |
 | W-Mom                | Auto Timescale        |     1.82285E-01     |
 +----------------------+-----------------------+---------------------+
 | H-Energy             | Auto Timescale        |     1.82285E-01     |
 +----------------------+-----------------------+---------------------+
 | K-TurbKE             | Auto Timescale        |     1.82285E-01     |
 | E-Diss.K             | Auto Timescale        |     1.82285E-01     |
 +----------------------+-----------------------+---------------------+

 ======================================================================
 OUTER LOOP ITERATION =  206 (   22) CPU SECONDS = 1.510E+02 (4.410E+01)
 ----------------------------------------------------------------------
 |       Equation       | Rate | RMS Res | Max Res |  Linear Solution |
 +----------------------+------+---------+---------+------------------+
 | U-Mom                | 0.98 | 1.3E-04 | 1.2E-02 |       3.4E-02  OK|
 | V-Mom                | 0.97 | 1.4E-04 | 1.0E-02 |       3.4E-02  OK|
 | W-Mom                | 0.94 | 7.6E-05 | 4.9E-03 |       1.1E-01  ok|
 | P-Mass               | 0.95 | 2.0E-05 | 2.7E-04 | 13.3  5.2E-02  OK|
 +----------------------+------+---------+---------+------------------+
 | H-Energy             | 0.94 | 1.1E-04 | 3.3E-03 |  5.4  8.5E-02  OK|
 +----------------------+------+---------+---------+------------------+
 | K-TurbKE             | 0.95 | 2.9E-04 | 2.6E-03 |  5.4  6.1E-02  OK|
 | E-Diss.K             | 0.93 | 4.8E-04 | 1.0E-02 | 13.0  1.9E-03  OK|
 +----------------------+------+---------+---------+------------------+

 ======================================================================
 OUTER LOOP ITERATION =  207 (   23) CPU SECONDS = 1.530E+02 (4.604E+01)
 ----------------------------------------------------------------------
 |       Equation       | Rate | RMS Res | Max Res |  Linear Solution |
 +----------------------+------+---------+---------+------------------+
 | U-Mom                | 0.98 | 1.3E-04 | 1.1E-02 |       3.4E-02  OK|
 | V-Mom                | 0.97 | 1.4E-04 | 9.9E-03 |       3.4E-02  OK|
 | W-Mom                | 0.94 | 7.2E-05 | 5.3E-03 |       1.1E-01  ok|
 | P-Mass               | 0.95 | 1.9E-05 | 2.6E-04 | 13.3  5.3E-02  OK|
 +----------------------+------+---------+---------+------------------+
 | H-Energy             | 0.95 | 1.0E-04 | 3.3E-03 |  5.4  8.7E-02  OK|
 +----------------------+------+---------+---------+------------------+
 | K-TurbKE             | 0.95 | 2.8E-04 | 2.5E-03 |  5.4  6.1E-02  OK|
 | E-Diss.K             | 0.94 | 4.5E-04 | 9.2E-03 | 13.0  1.9E-03  OK|
 +----------------------+------+---------+---------+------------------+

 ======================================================================
 OUTER LOOP ITERATION =  208 (   24) CPU SECONDS = 1.550E+02 (4.800E+01)
 ----------------------------------------------------------------------
 |       Equation       | Rate | RMS Res | Max Res |  Linear Solution |
 +----------------------+------+---------+---------+------------------+
 | U-Mom                | 0.96 | 1.2E-04 | 9.9E-03 |       3.3E-02  OK|
 | V-Mom                | 0.96 | 1.3E-04 | 8.9E-03 |       3.3E-02  OK|
 | W-Mom                | 0.95 | 6.8E-05 | 5.6E-03 |       1.2E-01  ok|
 | P-Mass               | 0.95 | 1.8E-05 | 2.6E-04 | 13.3  5.4E-02  OK|
 +----------------------+------+---------+---------+------------------+
 | H-Energy             | 0.95 | 9.7E-05 | 3.1E-03 |  5.4  8.7E-02  OK|
 +----------------------+------+---------+---------+------------------+
 | K-TurbKE             | 0.95 | 2.7E-04 | 2.6E-03 |  5.4  6.1E-02  OK|
 | E-Diss.K             | 0.94 | 4.2E-04 | 8.4E-03 | 13.0  1.9E-03  OK|
 +----------------------+------+---------+---------+------------------+

 ======================================================================
 OUTER LOOP ITERATION =  209 (   25) CPU SECONDS = 1.570E+02 (5.002E+01)
 ----------------------------------------------------------------------
 |       Equation       | Rate | RMS Res | Max Res |  Linear Solution |
 +----------------------+------+---------+---------+------------------+
 | U-Mom                | 0.95 | 1.1E-04 | 9.2E-03 |       3.3E-02  OK|
 | V-Mom                | 0.96 | 1.2E-04 | 9.0E-03 |       3.3E-02  OK|
 | W-Mom                | 0.95 | 6.5E-05 | 5.6E-03 |       1.2E-01  ok|
 | P-Mass               | 0.96 | 1.7E-05 | 2.6E-04 | 13.3  5.5E-02  OK|
 +----------------------+------+---------+---------+------------------+
 | H-Energy             | 0.96 | 9.3E-05 | 2.7E-03 |  5.4  8.7E-02  OK|
 +----------------------+------+---------+---------+------------------+
 | K-TurbKE             | 0.94 | 2.5E-04 | 2.9E-03 |  5.4  6.1E-02  OK|
 | E-Diss.K             | 0.94 | 3.9E-04 | 7.6E-03 | 13.0  1.9E-03  OK|
 +----------------------+------+---------+---------+------------------+

 ======================================================================
 OUTER LOOP ITERATION =  210 (   26) CPU SECONDS = 1.588E+02 (5.190E+01)
 ----------------------------------------------------------------------
 |       Equation       | Rate | RMS Res | Max Res |  Linear Solution |
 +----------------------+------+---------+---------+------------------+
 | U-Mom                | 0.95 | 1.1E-04 | 8.6E-03 |       3.2E-02  OK|
 | V-Mom                | 0.96 | 1.2E-04 | 8.8E-03 |       3.3E-02  OK|
 | W-Mom                | 0.94 | 6.1E-05 | 5.1E-03 |       1.2E-01  ok|
 | P-Mass               | 0.96 | 1.7E-05 | 2.5E-04 | 13.3  5.5E-02  OK|
 +----------------------+------+---------+---------+------------------+
 | H-Energy             | 0.96 | 8.9E-05 | 2.2E-03 |  5.4  8.6E-02  OK|
 +----------------------+------+---------+---------+------------------+
 | K-TurbKE             | 0.94 | 2.4E-04 | 3.3E-03 |  5.4  6.1E-02  OK|
 | E-Diss.K             | 0.94 | 3.7E-04 | 6.8E-03 | 13.0  1.9E-03  OK|
 +----------------------+------+---------+---------+------------------+

 ======================================================================
 |                        Timescale Information                       |
 ----------------------------------------------------------------------
 |       Equation       |         Type          |      Timescale      |
 +----------------------+-----------------------+---------------------+
 | U-Mom                | Auto Timescale        |     1.78729E-01     |
 | V-Mom                | Auto Timescale        |     1.78729E-01     |
 | W-Mom                | Auto Timescale        |     1.78729E-01     |
 +----------------------+-----------------------+---------------------+
 | H-Energy             | Auto Timescale        |     1.78729E-01     |
 +----------------------+-----------------------+---------------------+
 | K-TurbKE             | Auto Timescale        |     1.78729E-01     |
 | E-Diss.K             | Auto Timescale        |     1.78729E-01     |
 +----------------------+-----------------------+---------------------+

 ======================================================================
 OUTER LOOP ITERATION =  211 (   27) CPU SECONDS = 1.607E+02 (5.379E+01)
 ----------------------------------------------------------------------
 |       Equation       | Rate | RMS Res | Max Res |  Linear Solution |
 +----------------------+------+---------+---------+------------------+
 | U-Mom                | 0.96 | 1.0E-04 | 8.3E-03 |       3.1E-02  OK|
 | V-Mom                | 0.95 | 1.1E-04 | 7.9E-03 |       3.2E-02  OK|
 | W-Mom                | 0.94 | 5.7E-05 | 4.2E-03 |       1.3E-01  ok|
 | P-Mass               | 0.97 | 1.6E-05 | 2.4E-04 | 13.3  5.5E-02  OK|
 +----------------------+------+---------+---------+------------------+
 | H-Energy             | 0.96 | 8.5E-05 | 2.3E-03 |  5.4  8.4E-02  OK|
 +----------------------+------+---------+---------+------------------+
 | K-TurbKE             | 0.94 | 2.2E-04 | 3.5E-03 |  5.4  6.0E-02  OK|
 | E-Diss.K             | 0.92 | 3.4E-04 | 6.1E-03 | 13.0  1.8E-03  OK|
 +----------------------+------+---------+---------+------------------+

 ======================================================================
 OUTER LOOP ITERATION =  212 (   28) CPU SECONDS = 1.626E+02 (5.568E+01)
 ----------------------------------------------------------------------
 |       Equation       | Rate | RMS Res | Max Res |  Linear Solution |
 +----------------------+------+---------+---------+------------------+
 | U-Mom                | 0.97 | 1.0E-04 | 8.0E-03 |       3.1E-02  OK|
 | V-Mom                | 0.96 | 1.1E-04 | 8.2E-03 |       3.2E-02  OK|
 | W-Mom                | 0.94 | 5.4E-05 | 3.4E-03 |       1.3E-01  ok|
 | P-Mass               | 0.97 | 1.6E-05 | 2.1E-04 | 13.3  5.5E-02  OK|
 +----------------------+------+---------+---------+------------------+
 | H-Energy             | 0.97 | 8.3E-05 | 2.4E-03 |  5.4  8.2E-02  OK|
 +----------------------+------+---------+---------+------------------+
 | K-TurbKE             | 0.94 | 2.1E-04 | 4.0E-03 |  5.4  6.0E-02  OK|
 | E-Diss.K             | 0.94 | 3.2E-04 | 5.6E-03 | 13.0  1.9E-03  OK|
 +----------------------+------+---------+---------+------------------+

 ======================================================================
 OUTER LOOP ITERATION =  213 (   29) CPU SECONDS = 1.646E+02 (5.762E+01)
 ----------------------------------------------------------------------
 |       Equation       | Rate | RMS Res | Max Res |  Linear Solution |
 +----------------------+------+---------+---------+------------------+
 | U-Mom                | 0.96 | 9.7E-05 | 7.4E-03 |       3.0E-02  OK|
 | V-Mom                | 0.96 | 1.1E-04 | 8.5E-03 |       3.2E-02  OK|
 | W-Mom                | 0.94 | 5.1E-05 | 3.1E-03 |       1.4E-01  ok|
 | P-Mass               | 0.97 | 1.5E-05 | 1.9E-04 | 13.3  5.6E-02  OK|
 +----------------------+------+---------+---------+------------------+
 | H-Energy             | 0.98 | 8.1E-05 | 2.5E-03 |  5.4  8.1E-02  OK|
 +----------------------+------+---------+---------+------------------+
 | K-TurbKE             | 0.94 | 2.0E-04 | 4.4E-03 |  5.4  6.0E-02  OK|
 | E-Diss.K             | 0.94 | 3.0E-04 | 5.2E-03 | 13.0  1.8E-03  OK|
 +----------------------+------+---------+---------+------------------+

 ======================================================================
 OUTER LOOP ITERATION =  214 (   30) CPU SECONDS = 1.665E+02 (5.954E+01)
 ----------------------------------------------------------------------
 |       Equation       | Rate | RMS Res | Max Res |  Linear Solution |
 +----------------------+------+---------+---------+------------------+
 | U-Mom                | 0.96 | 9.3E-05 | 7.4E-03 |       3.0E-02  OK|
 | V-Mom                | 0.96 | 1.0E-04 | 8.6E-03 |       3.2E-02  OK|
 | W-Mom                | 0.92 | 4.7E-05 | 2.9E-03 |       1.4E-01  ok|
 | P-Mass               | 0.98 | 1.5E-05 | 1.9E-04 | 13.3  5.7E-02  OK|
 +----------------------+------+---------+---------+------------------+
 | H-Energy             | 0.98 | 7.9E-05 | 2.6E-03 |  5.4  7.9E-02  OK|
 +----------------------+------+---------+---------+------------------+
 | K-TurbKE             | 0.94 | 1.8E-04 | 4.6E-03 |  5.4  6.0E-02  OK|
 | E-Diss.K             | 0.94 | 2.8E-04 | 4.8E-03 | 13.0  1.8E-03  OK|
 +----------------------+------+---------+---------+------------------+

 ======================================================================
 OUTER LOOP ITERATION =  215 (   31) CPU SECONDS = 1.684E+02 (6.147E+01)
 ----------------------------------------------------------------------
 |       Equation       | Rate | RMS Res | Max Res |  Linear Solution |
 +----------------------+------+---------+---------+------------------+
 | U-Mom                | 0.94 | 8.8E-05 | 7.3E-03 |       3.0E-02  OK|
 | V-Mom                | 0.95 | 9.6E-05 | 8.5E-03 |       3.2E-02  OK|
 | W-Mom                | 0.93 | 4.3E-05 | 2.5E-03 |       1.5E-01  ok|
 | P-Mass               | 0.98 | 1.4E-05 | 1.8E-04 | 13.3  5.8E-02  OK|
 +----------------------+------+---------+---------+------------------+
 | H-Energy             | 0.98 | 7.8E-05 | 2.6E-03 |  5.4  7.7E-02  OK|
 +----------------------+------+---------+---------+------------------+
 | K-TurbKE             | 0.94 | 1.7E-04 | 4.4E-03 |  5.4  6.0E-02  OK|
 | E-Diss.K             | 0.95 | 2.7E-04 | 4.5E-03 | 13.0  1.8E-03  OK|
 +----------------------+------+---------+---------+------------------+
                   
 CFD Solver finished: Wed Dec  5 13:48:52 2018
 CFD Solver wall clock seconds: 5.9413E+01

 ======================================================================
              Termination and Interrupt Condition Summary
 ======================================================================
    
 CFD Solver: All target criteria reached
   (Equation residuals)

 ======================================================================
              Boundary Flow and Total Source Term Summary
 ======================================================================

 +--------------------------------------------------------------------+
 |                               U-Mom                                |
 +--------------------------------------------------------------------+
 Boundary         : Default Domain Default                 -7.0115E+00
 Boundary         : in1                                     6.1514E-05
 Boundary         : in2                                    -6.0157E-05
 Boundary         : out                                     1.1868E+01
                                                           -----------
 Domain Imbalance :                                         4.8567E+00

 +--------------------------------------------------------------------+
 |                               V-Mom                                |
 +--------------------------------------------------------------------+
 Boundary         : Default Domain Default                  5.6793E+01
 Boundary         : in1                                     6.2115E+04
 Boundary         : in2                                    -6.2166E+04
 Boundary         : out                                    -5.8313E+00
                                                           -----------
 Domain Imbalance :                                        -3.3130E-01

 +--------------------------------------------------------------------+
 |                               W-Mom                                |
 +--------------------------------------------------------------------+
 Boundary         : Default Domain Default                 -1.2136E+04
 Boundary         : in1                                    -1.1858E-05
 Boundary         : in2                                    -1.3760E-05
 Boundary         : out                                     1.2171E+04
                                                           -----------
 Domain Imbalance :                                         3.4759E+01

 +--------------------------------------------------------------------+
 |                               P-Mass                               |
 +--------------------------------------------------------------------+
 Boundary         : in1                                     1.5000E+03
 Boundary         : in2                                     1.5000E+03
 Boundary         : out                                    -2.9997E+03
                                                           -----------
 Domain Imbalance :                                         2.6562E-01

 +--------------------------------------------------------------------+
 |                              H-Energy                              |
 +--------------------------------------------------------------------+
 Boundary         : in1                                     1.0569E+08
 Boundary         : in2                                    -8.2484E+07
 Boundary         : out                                    -2.3150E+07
                                                           -----------
 Domain Imbalance :                                         5.8588E+04


 +--------------------------------------------------------------------+
 |                     Normalised Imbalance Summary                   |
 +--------------------------------------------------------------------+
 |       Equation       |      Maximum Flow     |     Imbalance (%)   |
 +--------------------------------------------------------------------+
 | U-Mom                |       6.2166E+04      |        0.0078       |
 | V-Mom                |       6.2166E+04      |       -0.0005       |
 | W-Mom                |       6.2166E+04      |        0.0559       |
 | P-Mass               |       2.9997E+03      |        0.0089       |
 +----------------------+-----------------------+---------------------+
 | H-Energy             |       1.0569E+08      |        0.0554       |
 +----------------------+-----------------------+---------------------+

 ======================================================================
                     Wall Force and Moment Summary
 ======================================================================
                                                                          
 Notes:
 1. Pressure integrals exclude the reference pressure.  To include
    it, set the expert parameter 'include pref in forces = t'.


 +--------------------------------------------------------------------+
 |                      Pressure Force On Walls                       |
 +--------------------------------------------------------------------+
                                    X-Comp.      Y-Comp.      Z-Comp.

 Domain Group: Default Domain

 Default Domain Default           8.7915E+00  -5.7266E+01   1.2223E+04
                                  -----------  -----------  -----------
 Domain Group Totals :            8.7915E+00  -5.7266E+01   1.2223E+04


 +--------------------------------------------------------------------+
 |                       Viscous Force On Walls                       |
 +--------------------------------------------------------------------+
                                    X-Comp.      Y-Comp.      Z-Comp.

 Domain Group: Default Domain

 Default Domain Default          -8.4220E-01   1.5633E-01  -8.9714E+01
                                  -----------  -----------  -----------
 Domain Group Totals :           -8.4220E-01   1.5633E-01  -8.9714E+01


 +--------------------------------------------------------------------+
 |                      Pressure Moment On Walls                      |
 +--------------------------------------------------------------------+
                                    X-Comp.      Y-Comp.      Z-Comp.

 Domain Group: Default Domain

 Default Domain Default           1.9557E+01  -8.4876E+01  -1.0624E+05
                                  -----------  -----------  -----------
 Domain Group Totals :            1.9557E+01  -8.4876E+01  -1.0624E+05


 +--------------------------------------------------------------------+
 |                       Viscous Moment On Walls                      |
 +--------------------------------------------------------------------+
                                    X-Comp.      Y-Comp.      Z-Comp.

 Domain Group: Default Domain

 Default Domain Default          -1.9074E+00  -1.5289E+00  -5.9486E+03
                                  -----------  -----------  -----------
 Domain Group Totals :           -1.9074E+00  -1.5289E+00  -5.9486E+03


 +--------------------------------------------------------------------+
 |                   Locations of Maximum Residuals                   |
 +--------------------------------------------------------------------+
 |       Equation       |      Domain Name      |     Node Number     |
 +--------------------------------------------------------------------+
 | U-Mom                | Default Domain        |          35616      |
 | V-Mom                | Default Domain        |          35616      |
 | W-Mom                | Default Domain        |          42606      |
 | P-Mass               | Default Domain        |          42563      |
 +----------------------+-----------------------+---------------------+
 | H-Energy             | Default Domain        |          42920      |
 +----------------------+-----------------------+---------------------+
 | K-TurbKE             | Default Domain        |          35625      |
 | E-Diss.K             | Default Domain        |          46212      |
 +----------------------+-----------------------+---------------------+

 ======================================================================
 |                     False Transient Information                    |
 +--------------------------------------------------------------------+
 |       Equation       |         Type          | Elapsed Pseudo-Time |
 +--------------------------------------------------------------------+
 | U-Mom                | Auto Timescale        |     5.79873E+00     |
 | V-Mom                | Auto Timescale        |     5.79873E+00     |
 | W-Mom                | Auto Timescale        |     5.79873E+00     |
 +----------------------+-----------------------+---------------------+
 | H-Energy             | Auto Timescale        |     5.79873E+00     |
 +----------------------+-----------------------+---------------------+
 | K-TurbKE             | Auto Timescale        |     5.79873E+00     |
 | E-Diss.K             | Auto Timescale        |     5.79873E+00     |
 +----------------------+-----------------------+---------------------+

 +--------------------------------------------------------------------+
 |                     Average Scale Information                      |
 +--------------------------------------------------------------------+

 Domain Name : Default Domain
     Global Length                                         = 3.2208E+00
     Minimum Extent                                        = 4.0000E+00
     Maximum Extent                                        = 6.0000E+00
     Density                                               = 9.9700E+02
     Dynamic Viscosity                                     = 8.8990E-04
     Velocity                                              = 5.7084E+00
     Advection Time                                        = 5.6422E-01
     Reynolds Number                                       = 2.0598E+07
     Thermal Conductivity                                  = 6.0690E-01
     Specific Heat Capacity at Constant Pressure           = 4.1817E+03
     Prandtl Number                                        = 6.1316E+00
     Temperature Range                                     = 3.0011E+01

 +--------------------------------------------------------------------+
 |                     Variable Range Information                     |
 +--------------------------------------------------------------------+

 Domain Name : Default Domain
 +--------------------------------------------------------------------+
 |      Variable Name                         |    min    |    max    |
 +--------------------------------------------------------------------+
 | Density                                    |  9.97E+02 |  9.97E+02 |
 | Specific Heat Capacity at Constant Pressure|  4.18E+03 |  4.18E+03 |
 | Dynamic Viscosity                          |  8.90E-04 |  8.90E-04 |
 | Thermal Conductivity                       |  6.07E-01 |  6.07E-01 |
 | Static Entropy                             | -1.89E+02 |  2.30E+02 |
 | Velocity u                                 | -6.78E+00 |  6.70E+00 |
 | Velocity v                                 | -6.99E+00 |  7.01E+00 |
 | Velocity w                                 | -5.55E+00 |  1.96E+00 |
 | Pressure                                   | -1.05E+04 |  7.82E+04 |
 | Turbulence Kinetic Energy                  |  1.19E-04 |  4.92E+00 |
 | Turbulence Eddy Dissipation                |  3.25E-04 |  2.99E+02 |
 | Eddy Viscosity                             |  1.64E-03 |  3.44E+02 |
 | Temperature                                |  2.85E+02 |  3.15E+02 |
 | Static Enthalpy                            | -5.50E+04 |  7.05E+04 |
 +--------------------------------------------------------------------+

 +--------------------------------------------------------------------+
 |               CPU Requirements of Numerical Solution               |
 +--------------------------------------------------------------------+

 Subsystem Name                  Discretization       Linear Solution
                                (secs.   %total)     (secs.   %total) 
 ----------------------------------------------------------------------
 Momentum and Mass              2.04E+01  30.5 %     6.57E+00   9.8 %
 Heat Transfer                  6.95E+00  10.4 %     2.27E+00   3.4 %
 TurbKE and Diss.K              1.09E+01  16.3 %     5.50E+00   8.2 %
                                -------- -------     --------  ------
 Subsystem Summary              3.83E+01  57.3 %     1.43E+01  21.4 %

 File Reading                   8.20E-02    0.1 %
 Variable Updates               6.57E+00    9.8 %
 File Writing                   5.85E-01    0.9 %
 Miscellaneous                  7.01E+00   10.5 %
                                --------
 Total                          6.69E+01

 +--------------------------------------------------------------------+
 |                   Job Information at End of Run                    |
 +--------------------------------------------------------------------+

 Host computer:  ENPC-LAB137 (PID:960)

 Job finished:   Wed Dec  5 13:48:55 2018

 Total wall clock time: 6.686E+01 seconds
             or: (          0:         0:         1:     6.857 )
                 (       Days:     Hours:   Minutes:   Seconds )

End of solution stage.

 +--------------------------------------------------------------------+
 | The results from this run of the ANSYS CFX Solver have been        |
 | written to                                                         |
 | H:/dos/CFD/CW/CFD-Static-Mixer/StaticMixerDX_pending/dp3_CFX_Solu- |
 | tion/Fluid Flow CFX_003.res                                        |
 +--------------------------------------------------------------------+


 +--------------------------------------------------------------------+
 | For CFX runs launched from Workbench, the final locations of       |
 | directories and files generated may differ from those shown.       |
 +--------------------------------------------------------------------+


This run of the ANSYS CFX Solver has finished.
