 This run of the CFX Release 19.1 Solver started at 14:24:52 on 05 Dec
 2018 by user jc2182 on ENPC-LAB137 (intel_xeon64.sse2_winnt) using the
 command:
 
  "C:\Program Files\ANSYS Inc\v191\CFX\bin\perllib\cfx5solve.pl" -batch
    -ccl runInput.ccl -fullname "Fluid Flow CFX_007"
 
 Release 19.1
 
  Point Releases and Patches installed:
  ANSYS, Inc. Products Release 19.1
  SpaceClaim Release 19.1
  Autodyn Release 19.1
  LS-DYNA Release 19.1
  CFD-Post only Release 19.1
  CFX (includes CFD-Post) Release 19.1
  Chemkin Release 19.1
  EnSight Release 19.1
  FENSAP-ICE Release 19.1
  Fluent (includes CFD-Post) Release 19.1
  Forte Release 19.1
  Polyflow (includes CFD-Post) Release 19.1
  TurboGrid Release 19.1
  ICEM CFD Release 19.1
  Customization Files for User Programmable Features Release 19.1
  Mechanical Products Release 19.1
  Icepak (includes CFD-Post) Release 19.1
  Remote Solve Manager Standalone Services Release 19.1
  ACIS Geometry Interface Release 19.1
  Catia, Version 5 Geometry Interface Release 19.1
  NX Geometry Interface Release 19.1
  Parasolid Geometry Interface  Release 19.1
  ANSYS, Inc. License Manager Release 19.1
 
 Setting up CFX Solver run ...
 
 
 +--------------------------------------------------------------------+
 |                                                                    |
 |                    CFX Command Language for Run                    |
 |                                                                    |
 +--------------------------------------------------------------------+
 
 LIBRARY:
   CEL:
     EXPRESSIONS:
       inMassFlow = 1500 [kg s^-1]
     END
   END
   MATERIAL: Water
     Material Description = Water (liquid)
     Material Group = Water Data, Constant Property Liquids
     Option = Pure Substance
     Thermodynamic State = Liquid
     PROPERTIES:
       Option = General Material
       EQUATION OF STATE:
         Density = 997.0 [kg m^-3]
         Molar Mass = 18.02 [kg kmol^-1]
         Option = Value
       END
       SPECIFIC HEAT CAPACITY:
         Option = Value
         Specific Heat Capacity = 4181.7 [J kg^-1 K^-1]
         Specific Heat Type = Constant Pressure
       END
       REFERENCE STATE:
         Option = Specified Point
         Reference Pressure = 1 [atm]
         Reference Specific Enthalpy = 0.0 [J/kg]
         Reference Specific Entropy = 0.0 [J/kg/K]
         Reference Temperature = 25 [C]
       END
       DYNAMIC VISCOSITY:
         Dynamic Viscosity = 8.899E-4 [kg m^-1 s^-1]
         Option = Value
       END
       THERMAL CONDUCTIVITY:
         Option = Value
         Thermal Conductivity = 0.6069 [W m^-1 K^-1]
       END
       ABSORPTION COEFFICIENT:
         Absorption Coefficient = 1.0 [m^-1]
         Option = Value
       END
       SCATTERING COEFFICIENT:
         Option = Value
         Scattering Coefficient = 0.0 [m^-1]
       END
       REFRACTIVE INDEX:
         Option = Value
         Refractive Index = 1.0 [m m^-1]
       END
       THERMAL EXPANSIVITY:
         Option = Value
         Thermal Expansivity = 2.57E-04 [K^-1]
       END
     END
   END
 END
 FLOW: Flow Analysis 1
   SOLUTION UNITS:
     Angle Units = [rad]
     Length Units = [m]
     Mass Units = [kg]
     Solid Angle Units = [sr]
     Temperature Units = [K]
     Time Units = [s]
   END
   ANALYSIS TYPE:
     Option = Steady State
     EXTERNAL SOLVER COUPLING:
       Option = None
     END
   END
   DOMAIN: Default Domain
     Coord Frame = Coord 0
     Domain Type = Fluid
     Location = B17
     BOUNDARY: Default Domain Default
       Boundary Type = WALL
       Location = F12.17,F14.17,F16.17,F19.17,F20.17,F21.17
       BOUNDARY CONDITIONS:
         HEAT TRANSFER:
           Option = Adiabatic
         END
         MASS AND MOMENTUM:
           Option = No Slip Wall
         END
         WALL ROUGHNESS:
           Option = Smooth Wall
         END
       END
     END
     BOUNDARY: in1
       Boundary Type = INLET
       Location = in1
       BOUNDARY CONDITIONS:
         FLOW DIRECTION:
           Option = Normal to Boundary Condition
         END
         FLOW REGIME:
           Option = Subsonic
         END
         HEAT TRANSFER:
           Option = Static Temperature
           Static Temperature = 315 [K]
         END
         MASS AND MOMENTUM:
           Mass Flow Rate = inMassFlow
           Mass Flow Rate Area = As Specified
           Option = Mass Flow Rate
         END
         TURBULENCE:
           Option = Medium Intensity and Eddy Viscosity Ratio
         END
       END
     END
     BOUNDARY: in2
       Boundary Type = INLET
       Location = in2
       BOUNDARY CONDITIONS:
         FLOW DIRECTION:
           Option = Normal to Boundary Condition
         END
         FLOW REGIME:
           Option = Subsonic
         END
         HEAT TRANSFER:
           Option = Static Temperature
           Static Temperature = 285 [K]
         END
         MASS AND MOMENTUM:
           Mass Flow Rate = inMassFlow
           Mass Flow Rate Area = As Specified
           Option = Mass Flow Rate
         END
         TURBULENCE:
           Option = Medium Intensity and Eddy Viscosity Ratio
         END
       END
     END
     BOUNDARY: out
       Boundary Type = OUTLET
       Location = out
       BOUNDARY CONDITIONS:
         FLOW REGIME:
           Option = Subsonic
         END
         MASS AND MOMENTUM:
           Option = Static Pressure
           Relative Pressure = 0 [Pa]
         END
       END
     END
     DOMAIN MODELS:
       BUOYANCY MODEL:
         Option = Non Buoyant
       END
       DOMAIN MOTION:
         Option = Stationary
       END
       MESH DEFORMATION:
         Option = None
       END
       REFERENCE PRESSURE:
         Reference Pressure = 1 [atm]
       END
     END
     FLUID DEFINITION: Fluid 1
       Material = Water
       Option = Material Library
       MORPHOLOGY:
         Option = Continuous Fluid
       END
     END
     FLUID MODELS:
       COMBUSTION MODEL:
         Option = None
       END
       HEAT TRANSFER MODEL:
         Option = Thermal Energy
       END
       THERMAL RADIATION MODEL:
         Option = None
       END
       TURBULENCE MODEL:
         Option = k epsilon
       END
       TURBULENT WALL FUNCTIONS:
         Option = Scalable
       END
     END
   END
   OUTPUT CONTROL:
     RESULTS:
       File Compression Level = Default
       Option = Standard
     END
   END
   SOLVER CONTROL:
     Turbulence Numerics = High Resolution
     ADVECTION SCHEME:
       Option = High Resolution
     END
     CONVERGENCE CONTROL:
       Length Scale Option = Conservative
       Maximum Number of Iterations = 100
       Minimum Number of Iterations = 5
       Timescale Control = Auto Timescale
       Timescale Factor = 1.0
     END
     CONVERGENCE CRITERIA:
       Residual Target = 1.E-4
       Residual Type = RMS
     END
     DYNAMIC MODEL CONTROL:
       Global Dynamic Model Control = On
     END
   END
 END
 COMMAND FILE:
   Version = 19.1
   Results Version = 19.1
 END
 PARAMETERIZATION:
   INPUT FIELD: inMassFlow
     Expression Name = inMassFlow
     Method = Expression
   END
 END
 SIMULATION CONTROL:
   EXECUTION CONTROL:
     EXECUTABLE SELECTION:
       Double Precision = No
       Large Problem = No
     END
     INTERPOLATOR STEP CONTROL:
       Runtime Priority = Standard
       MEMORY CONTROL:
         Memory Allocation Factor = 1.0
       END
     END
     PARALLEL HOST LIBRARY:
       HOST DEFINITION: enpclab137
         Remote Host Name = ENPC-LAB137
         Host Architecture String = winnt-amd64
         Installation Root = C:\Program Files\ANSYS Inc\v%v\CFX
       END
     END
     PARTITIONER STEP CONTROL:
       Multidomain Option = Automatic
       Runtime Priority = Standard
       MEMORY CONTROL:
         Memory Allocation Factor = 1.0
       END
       PARTITION SMOOTHING:
         Maximum Partition Smoothing Sweeps = 100
         Option = Smooth
       END
       PARTITIONING TYPE:
         MeTiS Type = k-way
         Option = MeTiS
         Partition Size Rule = Automatic
       END
     END
     RUN DEFINITION:
       Run Mode = Full
       Solver Input File = Fluid Flow CFX.def
       Solver Results File = \
         H:/dos/CFD/CW/CFD-Static-Mixer/StaticMixerDX_pending/dp3_CFX_Solution\
         /Fluid Flow CFX_007.res
       INITIAL VALUES SPECIFICATION:
         INITIAL VALUES CONTROL:
           Use Mesh From = Solver Input File
           Continue History From = Workbench Initial Values
         END
         INITIAL VALUES: Workbench Initial Values
           Option = Results File
           File Name = Fluid Flow CFX_006.res
         END
       END
     END
     SOLVER STEP CONTROL:
       Runtime Priority = Standard
       MEMORY CONTROL:
         Memory Allocation Factor = 1.0
       END
       PARALLEL ENVIRONMENT:
         Number of Processes = 1
         Start Method = Serial
       END
     END
   END
 END
 
 
 +--------------------------------------------------------------------+
 |                                                                    |
 |                  Interpolation of Initial Values                   |
 |                                                                    |
 +--------------------------------------------------------------------+
 
 


 +--------------------------------------------------------------------+
 |                                                                    |
 |                    ANSYS(R) CFX(R) Interpolator                    |
 |                                                                    |
 | Release 19.1                                                       |
 | Build 19.1 2018-04-17T13:27:50.069000                              |
 | Tue Apr 17 15:02:11 GMTDT 2018                                     |
 |                                                                    |
 |                        Executable Attributes                       |
 |                                                                    |
 |           single-64bit-int32-archfort-optimised-std-lcomp          |
 |                                                                    |
 | (C) 1996-2018 ANSYS, Inc.                                          |
 |                                                                    |
 | All rights reserved. Unauthorized use, distribution or duplication |
 | is prohibited. This product is subject to U.S. laws governing      |
 | export and re-export. For full Legal Notice, see documentation.    |
 +--------------------------------------------------------------------+




 +--------------------------------------------------------------------+
 |                  Job Information at Start of Run                   |
 +--------------------------------------------------------------------+

 Run mode:       serial run

 Host computer:  ENPC-LAB137 (PID:7928)

 Job started:    Wed Dec  5 14:24:53 2018


 +--------------------------------------------------------------------+
 |        Memory Allocated for Run  (Actual usage may be less)        |
 +--------------------------------------------------------------------+

           | Real       | Integer    | Character | Logical  | Double
 ----------+------------+------------+-----------+----------+----------
 Mwords    |       0.79 |       0.79 |      0.20 |     0.01 |     0.05
 Mbytes    |       3.02 |       3.00 |      0.19 |     0.04 |     0.36
 ----------+------------+------------+-----------+----------+----------


 +--------------------------------------------------------------------+
 |                  Host Memory Information (Mbytes)                  |
 +--------------------------------------------------------------------+
 |          Host           |     System     |   Allocated    |   %    |
 +-------------------------+----------------+----------------+--------+
 | ENPC-LAB137             |     16240.97   |         6.61   |   0.04 |
 +-------------------------+----------------+----------------+--------+

 ======================================================================
               Interpolating Onto Domain "Default Domain"
 ======================================================================

 Total Number of Nodes in the Target Domain              =         8631
 Bounding Box Volume of the Target Mesh                  =  9.60000E+01


 Checking all source domains from the source file:
   Target mesh is different from domain "Default Domain".

 Searching for Candidate Source Domains:
   Domain "Default Domain"
     Number of Mapped Nodes                     =         7606 ( 88.1%)
     Bounding Box Overlap Volume                =  9.60000E+01 (100.0%)
   Setting Up Unmapped Nodes:
     Number of Unmapped Nodes                   =         1025 ( 11.9%)

 Start interpolation of variables: 
   Source Domain Name                                    Mapped Nodes
   Default Domain                                         7606 ( 88.1%)

 +--------------------------------------------------------------------+
 |                     Variable Range Information                     |
 +--------------------------------------------------------------------+
 +--------------------------------------------------------------------+
 |      Variable Name                         |    min    |    max    |
 +--------------------------------------------------------------------+
 | Thermal Conductivity                       |  6.07E-01 |  6.07E-01 |
 | Courant Number                             |  1.74E+00 |  3.17E+01 |
 | Density                                    |  9.97E+02 |  9.97E+02 |
 | Static Enthalpy                            | -5.50E+04 |  7.05E+04 |
 | Static Entropy                             | -1.89E+02 |  2.30E+02 |
 | Pressure                                   | -8.38E+03 |  7.51E+04 |
 | Specific Heat Capacity at Constant Pressure|  4.18E+03 |  4.18E+03 |
 | Specific Heat Capacity at Constant Volume  |  4.18E+03 |  4.18E+03 |
 | Turbulence Eddy Dissipation                |  3.75E-04 |  2.20E+02 |
 | Turbulence Eddy Frequency                  |  6.75E+00 |  2.41E+03 |
 | Temperature                                |  2.85E+02 |  3.15E+02 |
 | Turbulence Kinetic Energy                  |  1.20E-04 |  4.44E+00 |
 | Velocity                                   |  9.98E-01 |  7.57E+00 |
 | Dynamic Viscosity                          |  8.90E-04 |  8.90E-04 |
 | Eddy Viscosity                             |  1.39E-03 |  3.22E+02 |
 +--------------------------------------------------------------------+

 +--------------------------------------------------------------------+
 |                 CPU Requirements of Interpolation                  |
 +--------------------------------------------------------------------+

 Interpolation Step              Time    Percentage
                                (secs.   %total)
 ----------------------------------------------------------------------
 Tree Setup                     3.20E-01    8.2 %
 Interpolation                  1.60E+00   41.1 %
 Unmatched Nodes                6.10E-02    1.6 %
 Miscellaneous                  1.92E+00   49.2 %
                                --------
 Total                          3.91E+00

 +--------------------------------------------------------------------+
 |                   Job Information at End of Run                    |
 +--------------------------------------------------------------------+

 Host computer:  ENPC-LAB137 (PID:7928)

 Job finished:   Wed Dec  5 14:24:57 2018

 Total wall clock time: 3.913E+00 seconds
             or: (          0:         0:         0:     3.913 )
                 (       Days:     Hours:   Minutes:   Seconds )

 
 +--------------------------------------------------------------------+
 |                                                                    |
 |                               Solver                               |
 |                                                                    |
 +--------------------------------------------------------------------+
 



 +--------------------------------------------------------------------+
 |                                                                    |
 |                       ANSYS(R) CFX(R) Solver                       |
 |                                                                    |
 | Release 19.1                                                       |
 | Build 19.1 2018-04-17T13:27:50.069000                              |
 | Tue Apr 17 15:02:11 GMTDT 2018                                     |
 |                                                                    |
 |                        Executable Attributes                       |
 |                                                                    |
 |           single-64bit-int32-archfort-optimised-std-lcomp          |
 |                                                                    |
 | (C) 1996-2018 ANSYS, Inc.                                          |
 |                                                                    |
 | All rights reserved. Unauthorized use, distribution or duplication |
 | is prohibited. This product is subject to U.S. laws governing      |
 | export and re-export. For full Legal Notice, see documentation.    |
 +--------------------------------------------------------------------+




 +--------------------------------------------------------------------+
 |                  Job Information at Start of Run                   |
 +--------------------------------------------------------------------+

 Run mode:       serial run

 Host computer:  ENPC-LAB137 (PID:8300)

 Job started:    Wed Dec  5 14:24:59 2018

 +--------------------------------------------------------------------+
 |                        License Information                         |
 +--------------------------------------------------------------------+
 
 License Cap:    ANSYS CFX Solver (Max 128K Nodes)
 License ID:     VIGO_campus_bath_ac_uk-SYSTEM-1456-478427


 +--------------------------------------------------------------------+
 |        Memory Allocated for Run  (Actual usage may be less)        |
 +--------------------------------------------------------------------+

           | Real       | Integer    | Character | Logical  | Double
 ----------+------------+------------+-----------+----------+----------
 Mwords    |      13.64 |       2.50 |      7.26 |     0.12 |     0.20
 Mbytes    |      52.03 |       9.56 |      6.93 |     0.46 |     1.55
 ----------+------------+------------+-----------+----------+----------


 +--------------------------------------------------------------------+
 |                  Host Memory Information (Mbytes)                  |
 +--------------------------------------------------------------------+
 |          Host           |     System     |   Allocated    |   %    |
 +-------------------------+----------------+----------------+--------+
 | ENPC-LAB137             |     16240.97   |        70.52   |   0.43 |
 +-------------------------+----------------+----------------+--------+


 +--------------------------------------------------------------------+
 |                     ****** Notice ******                           |
 | The Wall Heat Transfer Coefficient written to the results file for |
 | any turbulent phase with heat transfer is based on the turbulent   |
 | wall function coefficient. It is consistent with the Wall Heat Flux|
 | the wall temperature, and the Wall Adjacent Temperature            |
 | (near-wall temperature).  If you would like it to be based on a    |
 | user-specified bulk temperature instead, please set the expert     |
 | parameter "tbulk for htc = <value>".                               |
 +--------------------------------------------------------------------+

 +--------------------------------------------------------------------+
 |                      Topology Simplification                       |
 +--------------------------------------------------------------------+

 +--------------------------------------------------------------------+
 |                       ****** Warning ******                        |
 |                                                                    |
 | Topology simplification is activated with the following            |
 | restrictions:                                                      |
 |                                                                    |
 | - Mesh regions referenced only within User Fortran and NOT         |
 |   in the command file will cause the solver to stop.               |
 | - The solver will stop during any "Edit Run in Progress" step      |
 |   if new 2D regions are referenced.                                |
 +--------------------------------------------------------------------+

 +--------------------------------------------------------------------+
 |                          Mesh Statistics                           |
 +--------------------------------------------------------------------+
 | Domain Name          | Orthog. Angle | Exp. Factor  | Aspect Ratio |
 +----------------------+---------------+--------------+--------------+
 |                      | Minimum [deg] |   Maximum    |    Maximum   |
 +----------------------+---------------+--------------+--------------+
 | Default Domain       |       30.7 ok |        19 ok |        15 OK |
 +----------------------+---------------+--------------+--------------+
 |                      |  %!  %ok  %OK | %!  %ok  %OK | %!  %ok  %OK |
 +----------------------+---------------+--------------+--------------+
 | Default Domain       |   0    4   96 |  0    4   96 |  0    0  100 |
 +----------------------+---------------+--------------+--------------+

 Domain Name : Default Domain

     Total Number of Nodes                                =        8631

     Total Number of Elements                             =       21727
         Total Number of Tetrahedrons                     =        9577
         Total Number of Prisms                           =       12150

     Total Number of Faces                                =        3166

 +--------------------------------------------------------------------+
 |      Initial Conditions Supplied by Fields in the Input Files      |
 +--------------------------------------------------------------------+

 Domain Name : Default Domain
     Courant Number
     Eddy Viscosity
     Pressure
     Specific Heat Capacity at Constant Pressure
     Static Enthalpy
     Static Entropy
     Temperature
     Turbulence Eddy Dissipation
     Turbulence Eddy Frequency
     Turbulence Kinetic Energy
     Velocity

 +--------------------------------------------------------------------+
 |                     Average Scale Information                      |
 +--------------------------------------------------------------------+

 Domain Name : Default Domain
     Global Length                                         = 3.2172E+00
     Minimum Extent                                        = 4.0000E+00
     Maximum Extent                                        = 6.0000E+00
     Density                                               = 9.9700E+02
     Dynamic Viscosity                                     = 8.8990E-04
     Velocity                                              = 5.0760E+00
     Advection Time                                        = 6.3381E-01
     Reynolds Number                                       = 1.8296E+07
     Thermal Conductivity                                  = 6.0690E-01
     Specific Heat Capacity at Constant Pressure           = 4.1817E+03
     Prandtl Number                                        = 6.1316E+00
     Temperature Range                                     = 3.0020E+01

 +--------------------------------------------------------------------+
 |                Checking for Isolated Fluid Regions                 |
 +--------------------------------------------------------------------+
 
 No isolated fluid regions were found.

 +--------------------------------------------------------------------+
 |              The Equations Solved in This Calculation              |
 +--------------------------------------------------------------------+

 Subsystem : Momentum and Mass

   U-Mom
   V-Mom
   W-Mom
   P-Mass

 Subsystem : Heat Transfer

   H-Energy

 Subsystem : TurbKE and Diss.K

   K-TurbKE
   E-Diss.K
                   
 CFD Solver started: Wed Dec  5 14:25:03 2018


 +--------------------------------------------------------------------+
 |                       Convergence History                          |
 +--------------------------------------------------------------------+

 ======================================================================
 |                        Timescale Information                       |
 ----------------------------------------------------------------------
 |       Equation       |         Type          |      Timescale      |
 +----------------------+-----------------------+---------------------+
 | U-Mom                | Auto Timescale        |     2.03591E-01     |
 | V-Mom                | Auto Timescale        |     2.03591E-01     |
 | W-Mom                | Auto Timescale        |     2.03591E-01     |
 +----------------------+-----------------------+---------------------+
 | H-Energy             | Auto Timescale        |     2.03591E-01     |
 +----------------------+-----------------------+---------------------+
 | K-TurbKE             | Auto Timescale        |     2.03591E-01     |
 | E-Diss.K             | Auto Timescale        |     2.03591E-01     |
 +----------------------+-----------------------+---------------------+

 ======================================================================
 OUTER LOOP ITERATION =  328 (    1) CPU SECONDS = 2.109E+02 (3.397E+00)
 ----------------------------------------------------------------------
 |       Equation       | Rate | RMS Res | Max Res |  Linear Solution |
 +----------------------+------+---------+---------+------------------+
 | U-Mom                | 0.00 | 5.4E-03 | 5.8E-02 |       1.6E-02  OK|
 | V-Mom                | 0.00 | 4.9E-03 | 6.4E-02 |       1.4E-02  OK|
 | W-Mom                | 0.00 | 3.2E-03 | 2.7E-02 |       1.1E-02  OK|
 | P-Mass               | 0.00 | 2.6E-03 | 3.0E-02 |  9.9  1.5E-02  OK|
 +----------------------+------+---------+---------+------------------+
 | H-Energy             | 0.00 | 8.5E-03 | 8.2E-02 |  5.6  5.8E-03  OK|
 +----------------------+------+---------+---------+------------------+
 | K-TurbKE             | 0.00 | 8.7E-03 | 8.8E-02 |  5.5  1.1E-02  OK|
 | E-Diss.K             | 0.00 | 5.3E-02 | 9.0E-01 |  7.9  3.6E-03  OK|
 +----------------------+------+---------+---------+------------------+

 ======================================================================
 OUTER LOOP ITERATION =  329 (    2) CPU SECONDS = 2.112E+02 (3.740E+00)
 ----------------------------------------------------------------------
 |       Equation       | Rate | RMS Res | Max Res |  Linear Solution |
 +----------------------+------+---------+---------+------------------+
 | U-Mom                | 0.49 | 2.6E-03 | 2.1E-02 |       1.8E-02  OK|
 | V-Mom                | 0.52 | 2.5E-03 | 2.7E-02 |       2.0E-02  OK|
 | W-Mom                | 0.42 | 1.3E-03 | 2.2E-02 |       6.2E-02  OK|
 | P-Mass               | 0.38 | 1.0E-03 | 1.1E-02 |  9.9  2.1E-02  OK|
 +----------------------+------+---------+---------+------------------+
 | H-Energy             | 0.26 | 2.2E-03 | 3.6E-02 |  5.5  1.4E-02  OK|
 +----------------------+------+---------+---------+------------------+
 | K-TurbKE             | 3.28 | 2.9E-02 | 2.2E-01 |  5.5  9.9E-03  OK|
 | E-Diss.K             | 1.49 | 7.9E-02 | 1.3E+00 |  8.0  1.2E-03  OK|
 +----------------------+------+---------+---------+------------------+

 ======================================================================
 OUTER LOOP ITERATION =  330 (    3) CPU SECONDS = 2.115E+02 (4.045E+00)
 ----------------------------------------------------------------------
 |       Equation       | Rate | RMS Res | Max Res |  Linear Solution |
 +----------------------+------+---------+---------+------------------+
 | U-Mom                | 0.69 | 1.8E-03 | 1.4E-02 |       2.1E-02  OK|
 | V-Mom                | 0.61 | 1.6E-03 | 2.0E-02 |       2.6E-02  OK|
 | W-Mom                | 0.60 | 8.0E-04 | 1.9E-02 |       9.7E-02  OK|
 | P-Mass               | 0.67 | 6.7E-04 | 5.5E-03 |  9.9  1.9E-02  OK|
 +----------------------+------+---------+---------+------------------+
 | H-Energy             | 0.81 | 1.8E-03 | 2.6E-02 |  5.5  2.0E-02  OK|
 +----------------------+------+---------+---------+------------------+
 | K-TurbKE             | 0.42 | 1.2E-02 | 1.1E-01 |  5.5  1.3E-02  OK|
 | E-Diss.K             | 0.43 | 3.4E-02 | 5.3E-01 |  8.0  5.1E-03  OK|
 +----------------------+------+---------+---------+------------------+

 ======================================================================
 |                        Timescale Information                       |
 ----------------------------------------------------------------------
 |       Equation       |         Type          |      Timescale      |
 +----------------------+-----------------------+---------------------+
 | U-Mom                | Auto Timescale        |     2.20826E-01     |
 | V-Mom                | Auto Timescale        |     2.20826E-01     |
 | W-Mom                | Auto Timescale        |     2.20826E-01     |
 +----------------------+-----------------------+---------------------+
 | H-Energy             | Auto Timescale        |     2.20826E-01     |
 +----------------------+-----------------------+---------------------+
 | K-TurbKE             | Auto Timescale        |     2.20826E-01     |
 | E-Diss.K             | Auto Timescale        |     2.20826E-01     |
 +----------------------+-----------------------+---------------------+

 ======================================================================
 OUTER LOOP ITERATION =  331 (    4) CPU SECONDS = 2.118E+02 (4.328E+00)
 ----------------------------------------------------------------------
 |       Equation       | Rate | RMS Res | Max Res |  Linear Solution |
 +----------------------+------+---------+---------+------------------+
 | U-Mom                | 0.70 | 1.3E-03 | 1.4E-02 |       3.4E-02  OK|
 | V-Mom                | 0.69 | 1.1E-03 | 1.6E-02 |       3.7E-02  OK|
 | W-Mom                | 0.80 | 6.4E-04 | 1.5E-02 |       9.1E-02  OK|
 | P-Mass               | 0.67 | 4.5E-04 | 4.4E-03 |  9.9  1.6E-02  OK|
 +----------------------+------+---------+---------+------------------+
 | H-Energy             | 0.95 | 1.7E-03 | 1.6E-02 |  5.5  1.6E-02  OK|
 +----------------------+------+---------+---------+------------------+
 | K-TurbKE             | 0.69 | 8.2E-03 | 6.4E-02 |  5.5  1.5E-02  OK|
 | E-Diss.K             | 0.37 | 1.3E-02 | 2.1E-01 |  8.0  7.2E-03  OK|
 +----------------------+------+---------+---------+------------------+

 ======================================================================
 OUTER LOOP ITERATION =  332 (    5) CPU SECONDS = 2.121E+02 (4.614E+00)
 ----------------------------------------------------------------------
 |       Equation       | Rate | RMS Res | Max Res |  Linear Solution |
 +----------------------+------+---------+---------+------------------+
 | U-Mom                | 0.73 | 9.2E-04 | 1.3E-02 |       2.5E-01  ok|
 | V-Mom                | 0.80 | 8.7E-04 | 1.2E-02 |       2.0E-01  ok|
 | W-Mom                | 0.82 | 5.2E-04 | 1.1E-02 |       2.4E-01  ok|
 | P-Mass               | 0.66 | 2.9E-04 | 3.2E-03 |  5.5  9.1E-02  OK|
 +----------------------+------+---------+---------+------------------+
 | H-Energy             | 1.02 | 1.7E-03 | 1.6E-02 |  5.6  1.5E-02  OK|
 +----------------------+------+---------+---------+------------------+
 | K-TurbKE             | 0.46 | 3.8E-03 | 2.1E-02 |  5.5  1.3E-02  OK|
 | E-Diss.K             | 0.29 | 3.7E-03 | 1.0E-01 |  8.0  8.3E-03  OK|
 +----------------------+------+---------+---------+------------------+

 ======================================================================
 OUTER LOOP ITERATION =  333 (    6) CPU SECONDS = 2.124E+02 (4.900E+00)
 ----------------------------------------------------------------------
 |       Equation       | Rate | RMS Res | Max Res |  Linear Solution |
 +----------------------+------+---------+---------+------------------+
 | U-Mom                | 0.85 | 7.8E-04 | 1.2E-02 |       1.6E-01  ok|
 | V-Mom                | 0.84 | 7.3E-04 | 9.4E-03 |       1.3E-01  ok|
 | W-Mom                | 0.88 | 4.6E-04 | 8.2E-03 |       8.7E-02  OK|
 | P-Mass               | 0.69 | 2.0E-04 | 2.3E-03 |  5.5  6.2E-02  OK|
 +----------------------+------+---------+---------+------------------+
 | H-Energy             | 0.86 | 1.5E-03 | 1.2E-02 |  5.5  1.2E-02  OK|
 +----------------------+------+---------+---------+------------------+
 | K-TurbKE             | 0.60 | 2.3E-03 | 1.7E-02 |  5.5  1.1E-02  OK|
 | E-Diss.K             | 1.12 | 4.2E-03 | 7.7E-02 |  8.0  5.1E-03  OK|
 +----------------------+------+---------+---------+------------------+

 ======================================================================
 OUTER LOOP ITERATION =  334 (    7) CPU SECONDS = 2.126E+02 (5.181E+00)
 ----------------------------------------------------------------------
 |       Equation       | Rate | RMS Res | Max Res |  Linear Solution |
 +----------------------+------+---------+---------+------------------+
 | U-Mom                | 0.75 | 5.9E-04 | 8.5E-03 |       1.0E-01  ok|
 | V-Mom                | 0.87 | 6.3E-04 | 7.9E-03 |       8.3E-02  OK|
 | W-Mom                | 0.87 | 4.0E-04 | 7.9E-03 |       6.6E-02  OK|
 | P-Mass               | 0.63 | 1.3E-04 | 1.5E-03 |  5.5  5.3E-02  OK|
 +----------------------+------+---------+---------+------------------+
 | H-Energy             | 0.89 | 1.3E-03 | 1.1E-02 |  5.5  1.0E-02  OK|
 +----------------------+------+---------+---------+------------------+
 | K-TurbKE             | 0.75 | 1.7E-03 | 1.5E-02 |  5.5  1.1E-02  OK|
 | E-Diss.K             | 0.47 | 2.0E-03 | 3.1E-02 |  8.0  5.5E-03  OK|
 +----------------------+------+---------+---------+------------------+

 ======================================================================
 OUTER LOOP ITERATION =  335 (    8) CPU SECONDS = 2.129E+02 (5.461E+00)
 ----------------------------------------------------------------------
 |       Equation       | Rate | RMS Res | Max Res |  Linear Solution |
 +----------------------+------+---------+---------+------------------+
 | U-Mom                | 0.79 | 4.6E-04 | 5.8E-03 |       7.6E-02  OK|
 | V-Mom                | 0.89 | 5.6E-04 | 7.0E-03 |       5.8E-02  OK|
 | W-Mom                | 0.88 | 3.6E-04 | 7.1E-03 |       6.0E-02  OK|
 | P-Mass               | 0.71 | 9.2E-05 | 1.0E-03 |  5.5  5.0E-02  OK|
 +----------------------+------+---------+---------+------------------+
 | H-Energy             | 0.90 | 1.2E-03 | 1.2E-02 |  5.5  9.6E-03  OK|
 +----------------------+------+---------+---------+------------------+
 | K-TurbKE             | 0.78 | 1.3E-03 | 1.3E-02 |  5.5  1.1E-02  OK|
 | E-Diss.K             | 0.54 | 1.1E-03 | 1.6E-02 |  8.0  6.3E-03  OK|
 +----------------------+------+---------+---------+------------------+

 ======================================================================
 |                        Timescale Information                       |
 ----------------------------------------------------------------------
 |       Equation       |         Type          |      Timescale      |
 +----------------------+-----------------------+---------------------+
 | U-Mom                | Auto Timescale        |     2.27916E-01     |
 | V-Mom                | Auto Timescale        |     2.27916E-01     |
 | W-Mom                | Auto Timescale        |     2.27916E-01     |
 +----------------------+-----------------------+---------------------+
 | H-Energy             | Auto Timescale        |     2.27916E-01     |
 +----------------------+-----------------------+---------------------+
 | K-TurbKE             | Auto Timescale        |     2.27916E-01     |
 | E-Diss.K             | Auto Timescale        |     2.27916E-01     |
 +----------------------+-----------------------+---------------------+

 ======================================================================
 OUTER LOOP ITERATION =  336 (    9) CPU SECONDS = 2.132E+02 (5.740E+00)
 ----------------------------------------------------------------------
 |       Equation       | Rate | RMS Res | Max Res |  Linear Solution |
 +----------------------+------+---------+---------+------------------+
 | U-Mom                | 0.84 | 3.9E-04 | 4.4E-03 |       6.2E-02  OK|
 | V-Mom                | 0.89 | 5.0E-04 | 6.1E-03 |       4.4E-02  OK|
 | W-Mom                | 0.89 | 3.2E-04 | 5.9E-03 |       5.9E-02  OK|
 | P-Mass               | 0.82 | 7.5E-05 | 9.7E-04 |  5.5  5.8E-02  OK|
 +----------------------+------+---------+---------+------------------+
 | H-Energy             | 0.92 | 1.1E-03 | 1.3E-02 |  5.5  9.5E-03  OK|
 +----------------------+------+---------+---------+------------------+
 | K-TurbKE             | 0.79 | 1.0E-03 | 1.1E-02 |  5.5  1.1E-02  OK|
 | E-Diss.K             | 0.63 | 6.7E-04 | 1.2E-02 |  8.0  6.6E-03  OK|
 +----------------------+------+---------+---------+------------------+

 ======================================================================
 OUTER LOOP ITERATION =  337 (   10) CPU SECONDS = 2.135E+02 (6.017E+00)
 ----------------------------------------------------------------------
 |       Equation       | Rate | RMS Res | Max Res |  Linear Solution |
 +----------------------+------+---------+---------+------------------+
 | U-Mom                | 0.88 | 3.4E-04 | 3.7E-03 |       5.9E-02  OK|
 | V-Mom                | 0.89 | 4.4E-04 | 5.6E-03 |       4.1E-02  OK|
 | W-Mom                | 0.89 | 2.8E-04 | 5.4E-03 |       6.3E-02  OK|
 | P-Mass               | 0.89 | 6.7E-05 | 8.8E-04 |  5.5  9.1E-02  OK|
 +----------------------+------+---------+---------+------------------+
 | H-Energy             | 0.92 | 1.0E-03 | 1.5E-02 |  5.5  9.0E-03  OK|
 +----------------------+------+---------+---------+------------------+
 | K-TurbKE             | 0.80 | 8.4E-04 | 1.0E-02 |  5.5  1.0E-02  OK|
 | E-Diss.K             | 0.69 | 4.6E-04 | 7.1E-03 |  8.0  6.3E-03  OK|
 +----------------------+------+---------+---------+------------------+

 ======================================================================
 OUTER LOOP ITERATION =  338 (   11) CPU SECONDS = 2.138E+02 (6.329E+00)
 ----------------------------------------------------------------------
 |       Equation       | Rate | RMS Res | Max Res |  Linear Solution |
 +----------------------+------+---------+---------+------------------+
 | U-Mom                | 0.91 | 3.1E-04 | 3.5E-03 |       1.3E-02  OK|
 | V-Mom                | 0.89 | 3.9E-04 | 5.1E-03 |       9.5E-03  OK|
 | W-Mom                | 0.89 | 2.5E-04 | 4.9E-03 |       1.3E-02  OK|
 | P-Mass               | 0.91 | 6.0E-05 | 7.7E-04 |  9.9  2.5E-02  OK|
 +----------------------+------+---------+---------+------------------+
 | H-Energy             | 0.92 | 9.3E-04 | 1.5E-02 |  5.6  8.7E-03  OK|
 +----------------------+------+---------+---------+------------------+
 | K-TurbKE             | 0.81 | 6.8E-04 | 9.1E-03 |  5.5  9.8E-03  OK|
 | E-Diss.K             | 0.89 | 4.1E-04 | 8.4E-03 |  8.0  5.7E-03  OK|
 +----------------------+------+---------+---------+------------------+

 ======================================================================
 OUTER LOOP ITERATION =  339 (   12) CPU SECONDS = 2.141E+02 (6.643E+00)
 ----------------------------------------------------------------------
 |       Equation       | Rate | RMS Res | Max Res |  Linear Solution |
 +----------------------+------+---------+---------+------------------+
 | U-Mom                | 0.92 | 2.9E-04 | 3.3E-03 |       1.5E-02  OK|
 | V-Mom                | 0.91 | 3.5E-04 | 4.3E-03 |       1.0E-02  OK|
 | W-Mom                | 0.88 | 2.2E-04 | 4.2E-03 |       1.4E-02  OK|
 | P-Mass               | 0.92 | 5.5E-05 | 6.6E-04 |  9.9  2.9E-02  OK|
 +----------------------+------+---------+---------+------------------+
 | H-Energy             | 0.92 | 8.6E-04 | 1.4E-02 |  5.6  8.6E-03  OK|
 +----------------------+------+---------+---------+------------------+
 | K-TurbKE             | 0.82 | 5.6E-04 | 6.7E-03 |  5.5  9.3E-03  OK|
 | E-Diss.K             | 1.04 | 4.2E-04 | 9.2E-03 |  8.0  5.3E-03  OK|
 +----------------------+------+---------+---------+------------------+

 ======================================================================
 OUTER LOOP ITERATION =  340 (   13) CPU SECONDS = 2.144E+02 (6.963E+00)
 ----------------------------------------------------------------------
 |       Equation       | Rate | RMS Res | Max Res |  Linear Solution |
 +----------------------+------+---------+---------+------------------+
 | U-Mom                | 0.95 | 2.7E-04 | 3.3E-03 |       1.5E-02  OK|
 | V-Mom                | 0.90 | 3.2E-04 | 4.1E-03 |       1.1E-02  OK|
 | W-Mom                | 0.88 | 1.9E-04 | 3.5E-03 |       1.8E-02  OK|
 | P-Mass               | 0.96 | 5.3E-05 | 5.6E-04 |  9.9  3.0E-02  OK|
 +----------------------+------+---------+---------+------------------+
 | H-Energy             | 0.91 | 7.8E-04 | 1.3E-02 |  5.5  8.3E-03  OK|
 +----------------------+------+---------+---------+------------------+
 | K-TurbKE             | 0.84 | 4.7E-04 | 6.6E-03 |  5.5  9.2E-03  OK|
 | E-Diss.K             | 1.02 | 4.3E-04 | 9.2E-03 |  8.0  4.8E-03  OK|
 +----------------------+------+---------+---------+------------------+

 ======================================================================
 |                        Timescale Information                       |
 ----------------------------------------------------------------------
 |       Equation       |         Type          |      Timescale      |
 +----------------------+-----------------------+---------------------+
 | U-Mom                | Auto Timescale        |     2.29291E-01     |
 | V-Mom                | Auto Timescale        |     2.29291E-01     |
 | W-Mom                | Auto Timescale        |     2.29291E-01     |
 +----------------------+-----------------------+---------------------+
 | H-Energy             | Auto Timescale        |     2.29291E-01     |
 +----------------------+-----------------------+---------------------+
 | K-TurbKE             | Auto Timescale        |     2.29291E-01     |
 | E-Diss.K             | Auto Timescale        |     2.29291E-01     |
 +----------------------+-----------------------+---------------------+

 ======================================================================
 OUTER LOOP ITERATION =  341 (   14) CPU SECONDS = 2.147E+02 (7.266E+00)
 ----------------------------------------------------------------------
 |       Equation       | Rate | RMS Res | Max Res |  Linear Solution |
 +----------------------+------+---------+---------+------------------+
 | U-Mom                | 0.95 | 2.6E-04 | 3.2E-03 |       1.6E-02  OK|
 | V-Mom                | 0.90 | 2.9E-04 | 3.8E-03 |       1.2E-02  OK|
 | W-Mom                | 0.88 | 1.7E-04 | 3.0E-03 |       2.2E-02  OK|
 | P-Mass               | 0.93 | 5.0E-05 | 4.9E-04 |  9.9  3.0E-02  OK|
 +----------------------+------+---------+---------+------------------+
 | H-Energy             | 0.89 | 6.9E-04 | 1.1E-02 |  5.5  8.5E-03  OK|
 +----------------------+------+---------+---------+------------------+
 | K-TurbKE             | 0.87 | 4.1E-04 | 5.5E-03 |  5.5  9.2E-03  OK|
 | E-Diss.K             | 0.97 | 4.2E-04 | 8.7E-03 |  8.0  4.8E-03  OK|
 +----------------------+------+---------+---------+------------------+

 ======================================================================
 OUTER LOOP ITERATION =  342 (   15) CPU SECONDS = 2.151E+02 (7.606E+00)
 ----------------------------------------------------------------------
 |       Equation       | Rate | RMS Res | Max Res |  Linear Solution |
 +----------------------+------+---------+---------+------------------+
 | U-Mom                | 0.95 | 2.4E-04 | 3.1E-03 |       1.6E-02  OK|
 | V-Mom                | 0.91 | 2.6E-04 | 3.6E-03 |       1.2E-02  OK|
 | W-Mom                | 0.88 | 1.5E-04 | 2.5E-03 |       2.7E-02  OK|
 | P-Mass               | 0.92 | 4.6E-05 | 4.3E-04 |  9.9  3.0E-02  OK|
 +----------------------+------+---------+---------+------------------+
 | H-Energy             | 0.88 | 6.1E-04 | 9.1E-03 |  5.5  9.1E-03  OK|
 +----------------------+------+---------+---------+------------------+
 | K-TurbKE             | 0.88 | 3.6E-04 | 4.1E-03 |  5.5  9.2E-03  OK|
 | E-Diss.K             | 0.93 | 3.9E-04 | 7.9E-03 |  8.0  5.0E-03  OK|
 +----------------------+------+---------+---------+------------------+

 ======================================================================
 OUTER LOOP ITERATION =  343 (   16) CPU SECONDS = 2.154E+02 (7.949E+00)
 ----------------------------------------------------------------------
 |       Equation       | Rate | RMS Res | Max Res |  Linear Solution |
 +----------------------+------+---------+---------+------------------+
 | U-Mom                | 0.95 | 2.3E-04 | 3.0E-03 |       1.6E-02  OK|
 | V-Mom                | 0.91 | 2.4E-04 | 3.3E-03 |       1.2E-02  OK|
 | W-Mom                | 0.88 | 1.3E-04 | 2.2E-03 |       3.1E-02  OK|
 | P-Mass               | 0.92 | 4.2E-05 | 3.9E-04 |  9.9  2.9E-02  OK|
 +----------------------+------+---------+---------+------------------+
 | H-Energy             | 0.87 | 5.3E-04 | 8.0E-03 |  5.6  9.9E-03  OK|
 +----------------------+------+---------+---------+------------------+
 | K-TurbKE             | 0.91 | 3.3E-04 | 3.7E-03 |  5.5  9.1E-03  OK|
 | E-Diss.K             | 0.90 | 3.5E-04 | 6.9E-03 |  8.0  5.3E-03  OK|
 +----------------------+------+---------+---------+------------------+

 ======================================================================
 OUTER LOOP ITERATION =  344 (   17) CPU SECONDS = 2.158E+02 (8.330E+00)
 ----------------------------------------------------------------------
 |       Equation       | Rate | RMS Res | Max Res |  Linear Solution |
 +----------------------+------+---------+---------+------------------+
 | U-Mom                | 0.95 | 2.2E-04 | 3.0E-03 |       1.6E-02  OK|
 | V-Mom                | 0.91 | 2.2E-04 | 3.1E-03 |       1.2E-02  OK|
 | W-Mom                | 0.89 | 1.2E-04 | 1.9E-03 |       3.5E-02  OK|
 | P-Mass               | 0.92 | 3.9E-05 | 3.5E-04 |  9.9  2.9E-02  OK|
 +----------------------+------+---------+---------+------------------+
 | H-Energy             | 0.89 | 4.7E-04 | 6.2E-03 |  5.6  1.0E-02  OK|
 +----------------------+------+---------+---------+------------------+
 | K-TurbKE             | 0.92 | 3.0E-04 | 3.3E-03 |  5.5  9.0E-03  OK|
 | E-Diss.K             | 0.88 | 3.1E-04 | 5.9E-03 |  8.0  5.7E-03  OK|
 +----------------------+------+---------+---------+------------------+

 ======================================================================
 OUTER LOOP ITERATION =  345 (   18) CPU SECONDS = 2.162E+02 (8.719E+00)
 ----------------------------------------------------------------------
 |       Equation       | Rate | RMS Res | Max Res |  Linear Solution |
 +----------------------+------+---------+---------+------------------+
 | U-Mom                | 0.95 | 2.1E-04 | 3.2E-03 |       1.6E-02  OK|
 | V-Mom                | 0.92 | 2.0E-04 | 2.9E-03 |       1.2E-02  OK|
 | W-Mom                | 0.89 | 1.0E-04 | 1.7E-03 |       3.8E-02  OK|
 | P-Mass               | 0.92 | 3.6E-05 | 3.2E-04 |  9.9  2.8E-02  OK|
 +----------------------+------+---------+---------+------------------+
 | H-Energy             | 0.90 | 4.3E-04 | 5.8E-03 |  5.5  1.1E-02  OK|
 +----------------------+------+---------+---------+------------------+
 | K-TurbKE             | 0.93 | 2.8E-04 | 3.0E-03 |  5.5  9.0E-03  OK|
 | E-Diss.K             | 0.86 | 2.7E-04 | 4.9E-03 |  8.0  5.9E-03  OK|
 +----------------------+------+---------+---------+------------------+

 ======================================================================
 |                        Timescale Information                       |
 ----------------------------------------------------------------------
 |       Equation       |         Type          |      Timescale      |
 +----------------------+-----------------------+---------------------+
 | U-Mom                | Auto Timescale        |     2.29581E-01     |
 | V-Mom                | Auto Timescale        |     2.29581E-01     |
 | W-Mom                | Auto Timescale        |     2.29581E-01     |
 +----------------------+-----------------------+---------------------+
 | H-Energy             | Auto Timescale        |     2.29581E-01     |
 +----------------------+-----------------------+---------------------+
 | K-TurbKE             | Auto Timescale        |     2.29581E-01     |
 | E-Diss.K             | Auto Timescale        |     2.29581E-01     |
 +----------------------+-----------------------+---------------------+

 ======================================================================
 OUTER LOOP ITERATION =  346 (   19) CPU SECONDS = 2.165E+02 (9.069E+00)
 ----------------------------------------------------------------------
 |       Equation       | Rate | RMS Res | Max Res |  Linear Solution |
 +----------------------+------+---------+---------+------------------+
 | U-Mom                | 0.95 | 2.0E-04 | 3.2E-03 |       1.5E-02  OK|
 | V-Mom                | 0.92 | 1.9E-04 | 2.7E-03 |       1.2E-02  OK|
 | W-Mom                | 0.91 | 9.4E-05 | 1.6E-03 |       4.0E-02  OK|
 | P-Mass               | 0.93 | 3.3E-05 | 2.9E-04 |  9.9  2.7E-02  OK|
 +----------------------+------+---------+---------+------------------+
 | H-Energy             | 0.90 | 3.9E-04 | 5.6E-03 |  5.5  1.1E-02  OK|
 +----------------------+------+---------+---------+------------------+
 | K-TurbKE             | 0.94 | 2.6E-04 | 2.7E-03 |  5.5  9.0E-03  OK|
 | E-Diss.K             | 0.85 | 2.3E-04 | 3.9E-03 |  8.0  6.3E-03  OK|
 +----------------------+------+---------+---------+------------------+

 ======================================================================
 OUTER LOOP ITERATION =  347 (   20) CPU SECONDS = 2.169E+02 (9.474E+00)
 ----------------------------------------------------------------------
 |       Equation       | Rate | RMS Res | Max Res |  Linear Solution |
 +----------------------+------+---------+---------+------------------+
 | U-Mom                | 0.95 | 1.9E-04 | 3.2E-03 |       1.5E-02  OK|
 | V-Mom                | 0.93 | 1.7E-04 | 2.6E-03 |       1.2E-02  OK|
 | W-Mom                | 0.93 | 8.8E-05 | 1.4E-03 |       4.1E-02  OK|
 | P-Mass               | 0.93 | 3.1E-05 | 2.6E-04 |  9.9  2.5E-02  OK|
 +----------------------+------+---------+---------+------------------+
 | H-Energy             | 0.93 | 3.6E-04 | 5.3E-03 |  5.5  1.1E-02  OK|
 +----------------------+------+---------+---------+------------------+
 | K-TurbKE             | 0.95 | 2.5E-04 | 2.5E-03 |  5.5  9.2E-03  OK|
 | E-Diss.K             | 0.85 | 1.9E-04 | 3.2E-03 |  8.0  6.4E-03  OK|
 +----------------------+------+---------+---------+------------------+

 ======================================================================
 OUTER LOOP ITERATION =  348 (   21) CPU SECONDS = 2.173E+02 (9.810E+00)
 ----------------------------------------------------------------------
 |       Equation       | Rate | RMS Res | Max Res |  Linear Solution |
 +----------------------+------+---------+---------+------------------+
 | U-Mom                | 0.94 | 1.8E-04 | 3.1E-03 |       1.5E-02  OK|
 | V-Mom                | 0.93 | 1.6E-04 | 2.4E-03 |       1.2E-02  OK|
 | W-Mom                | 0.95 | 8.3E-05 | 1.3E-03 |       4.0E-02  OK|
 | P-Mass               | 0.93 | 2.9E-05 | 2.4E-04 |  9.9  2.4E-02  OK|
 +----------------------+------+---------+---------+------------------+
 | H-Energy             | 0.93 | 3.3E-04 | 5.1E-03 |  5.6  1.2E-02  OK|
 +----------------------+------+---------+---------+------------------+
 | K-TurbKE             | 0.95 | 2.4E-04 | 2.3E-03 |  5.5  9.5E-03  OK|
 | E-Diss.K             | 0.85 | 1.6E-04 | 2.6E-03 |  8.0  6.5E-03  OK|
 +----------------------+------+---------+---------+------------------+

 ======================================================================
 OUTER LOOP ITERATION =  349 (   22) CPU SECONDS = 2.176E+02 (1.014E+01)
 ----------------------------------------------------------------------
 |       Equation       | Rate | RMS Res | Max Res |  Linear Solution |
 +----------------------+------+---------+---------+------------------+
 | U-Mom                | 0.94 | 1.7E-04 | 2.9E-03 |       1.4E-02  OK|
 | V-Mom                | 0.94 | 1.5E-04 | 2.2E-03 |       1.2E-02  OK|
 | W-Mom                | 0.97 | 8.0E-05 | 1.2E-03 |       3.8E-02  OK|
 | P-Mass               | 0.94 | 2.7E-05 | 2.1E-04 |  9.9  2.3E-02  OK|
 +----------------------+------+---------+---------+------------------+
 | H-Energy             | 0.94 | 3.1E-04 | 4.6E-03 |  5.6  1.2E-02  OK|
 +----------------------+------+---------+---------+------------------+
 | K-TurbKE             | 0.95 | 2.3E-04 | 2.1E-03 |  5.5  9.8E-03  OK|
 | E-Diss.K             | 0.85 | 1.4E-04 | 2.2E-03 |  8.0  6.6E-03  OK|
 +----------------------+------+---------+---------+------------------+

 ======================================================================
 OUTER LOOP ITERATION =  350 (   23) CPU SECONDS = 2.179E+02 (1.045E+01)
 ----------------------------------------------------------------------
 |       Equation       | Rate | RMS Res | Max Res |  Linear Solution |
 +----------------------+------+---------+---------+------------------+
 | U-Mom                | 0.94 | 1.6E-04 | 2.7E-03 |       1.3E-02  OK|
 | V-Mom                | 0.95 | 1.4E-04 | 2.1E-03 |       1.2E-02  OK|
 | W-Mom                | 0.98 | 7.8E-05 | 1.3E-03 |       3.6E-02  OK|
 | P-Mass               | 0.94 | 2.5E-05 | 1.9E-04 |  9.9  2.2E-02  OK|
 +----------------------+------+---------+---------+------------------+
 | H-Energy             | 0.94 | 3.0E-04 | 4.0E-03 |  5.6  1.2E-02  OK|
 +----------------------+------+---------+---------+------------------+
 | K-TurbKE             | 0.95 | 2.1E-04 | 1.9E-03 |  5.6  1.0E-02  OK|
 | E-Diss.K             | 0.87 | 1.2E-04 | 1.8E-03 |  8.0  6.5E-03  OK|
 +----------------------+------+---------+---------+------------------+

 ======================================================================
 |                        Timescale Information                       |
 ----------------------------------------------------------------------
 |       Equation       |         Type          |      Timescale      |
 +----------------------+-----------------------+---------------------+
 | U-Mom                | Auto Timescale        |     2.29607E-01     |
 | V-Mom                | Auto Timescale        |     2.29607E-01     |
 | W-Mom                | Auto Timescale        |     2.29607E-01     |
 +----------------------+-----------------------+---------------------+
 | H-Energy             | Auto Timescale        |     2.29607E-01     |
 +----------------------+-----------------------+---------------------+
 | K-TurbKE             | Auto Timescale        |     2.29607E-01     |
 | E-Diss.K             | Auto Timescale        |     2.29607E-01     |
 +----------------------+-----------------------+---------------------+

 ======================================================================
 OUTER LOOP ITERATION =  351 (   24) CPU SECONDS = 2.182E+02 (1.076E+01)
 ----------------------------------------------------------------------
 |       Equation       | Rate | RMS Res | Max Res |  Linear Solution |
 +----------------------+------+---------+---------+------------------+
 | U-Mom                | 0.94 | 1.5E-04 | 2.5E-03 |       1.3E-02  OK|
 | V-Mom                | 0.95 | 1.4E-04 | 2.0E-03 |       1.1E-02  OK|
 | W-Mom                | 0.99 | 7.8E-05 | 1.4E-03 |       3.3E-02  OK|
 | P-Mass               | 0.94 | 2.4E-05 | 2.0E-04 |  9.9  2.0E-02  OK|
 +----------------------+------+---------+---------+------------------+
 | H-Energy             | 0.95 | 2.8E-04 | 3.7E-03 |  5.6  1.3E-02  OK|
 +----------------------+------+---------+---------+------------------+
 | K-TurbKE             | 0.95 | 2.0E-04 | 1.7E-03 |  5.5  1.1E-02  OK|
 | E-Diss.K             | 0.89 | 1.1E-04 | 1.5E-03 |  8.0  6.5E-03  OK|
 +----------------------+------+---------+---------+------------------+

 ======================================================================
 OUTER LOOP ITERATION =  352 (   25) CPU SECONDS = 2.185E+02 (1.108E+01)
 ----------------------------------------------------------------------
 |       Equation       | Rate | RMS Res | Max Res |  Linear Solution |
 +----------------------+------+---------+---------+------------------+
 | U-Mom                | 0.93 | 1.4E-04 | 2.3E-03 |       1.2E-02  OK|
 | V-Mom                | 0.95 | 1.3E-04 | 1.9E-03 |       1.1E-02  OK|
 | W-Mom                | 0.99 | 7.7E-05 | 1.4E-03 |       3.0E-02  OK|
 | P-Mass               | 0.94 | 2.3E-05 | 2.1E-04 |  9.9  1.9E-02  OK|
 +----------------------+------+---------+---------+------------------+
 | H-Energy             | 0.95 | 2.7E-04 | 3.3E-03 |  5.5  1.3E-02  OK|
 +----------------------+------+---------+---------+------------------+
 | K-TurbKE             | 0.95 | 1.9E-04 | 1.6E-03 |  5.6  1.1E-02  OK|
 | E-Diss.K             | 0.90 | 9.7E-05 | 1.2E-03 |  8.0  6.5E-03  OK|
 +----------------------+------+---------+---------+------------------+

 ======================================================================
 OUTER LOOP ITERATION =  353 (   26) CPU SECONDS = 2.188E+02 (1.137E+01)
 ----------------------------------------------------------------------
 |       Equation       | Rate | RMS Res | Max Res |  Linear Solution |
 +----------------------+------+---------+---------+------------------+
 | U-Mom                | 0.93 | 1.3E-04 | 2.0E-03 |       1.2E-02  OK|
 | V-Mom                | 0.95 | 1.2E-04 | 1.7E-03 |       1.1E-02  OK|
 | W-Mom                | 1.00 | 7.7E-05 | 1.4E-03 |       2.8E-02  OK|
 | P-Mass               | 0.95 | 2.1E-05 | 2.1E-04 |  9.9  1.8E-02  OK|
 +----------------------+------+---------+---------+------------------+
 | H-Energy             | 0.95 | 2.5E-04 | 2.9E-03 |  5.6  1.3E-02  OK|
 +----------------------+------+---------+---------+------------------+
 | K-TurbKE             | 0.94 | 1.8E-04 | 1.5E-03 |  5.6  1.1E-02  OK|
 | E-Diss.K             | 0.92 | 8.9E-05 | 1.2E-03 |  8.0  6.4E-03  OK|
 +----------------------+------+---------+---------+------------------+

 ======================================================================
 OUTER LOOP ITERATION =  354 (   27) CPU SECONDS = 2.191E+02 (1.169E+01)
 ----------------------------------------------------------------------
 |       Equation       | Rate | RMS Res | Max Res |  Linear Solution |
 +----------------------+------+---------+---------+------------------+
 | U-Mom                | 0.93 | 1.2E-04 | 1.7E-03 |       1.1E-02  OK|
 | V-Mom                | 0.95 | 1.2E-04 | 1.5E-03 |       1.1E-02  OK|
 | W-Mom                | 0.99 | 7.6E-05 | 1.4E-03 |       2.5E-02  OK|
 | P-Mass               | 0.95 | 2.0E-05 | 2.1E-04 |  9.9  1.7E-02  OK|
 +----------------------+------+---------+---------+------------------+
 | H-Energy             | 0.94 | 2.4E-04 | 2.5E-03 |  5.6  1.4E-02  OK|
 +----------------------+------+---------+---------+------------------+
 | K-TurbKE             | 0.94 | 1.7E-04 | 1.4E-03 |  5.6  1.1E-02  OK|
 | E-Diss.K             | 0.93 | 8.2E-05 | 1.1E-03 |  8.0  6.4E-03  OK|
 +----------------------+------+---------+---------+------------------+

 ======================================================================
 OUTER LOOP ITERATION =  355 (   28) CPU SECONDS = 2.195E+02 (1.199E+01)
 ----------------------------------------------------------------------
 |       Equation       | Rate | RMS Res | Max Res |  Linear Solution |
 +----------------------+------+---------+---------+------------------+
 | U-Mom                | 0.93 | 1.1E-04 | 1.4E-03 |       5.5E-02  OK|
 | V-Mom                | 0.95 | 1.1E-04 | 1.3E-03 |       5.9E-02  OK|
 | W-Mom                | 0.99 | 7.6E-05 | 1.5E-03 |       1.2E-01  ok|
 | P-Mass               | 0.95 | 1.9E-05 | 2.0E-04 |  5.5  9.8E-02  OK|
 +----------------------+------+---------+---------+------------------+
 | H-Energy             | 0.94 | 2.2E-04 | 2.3E-03 |  5.5  1.4E-02  OK|
 +----------------------+------+---------+---------+------------------+
 | K-TurbKE             | 0.93 | 1.6E-04 | 1.4E-03 |  5.6  1.2E-02  OK|
 | E-Diss.K             | 0.93 | 7.7E-05 | 1.1E-03 |  8.0  6.3E-03  OK|
 +----------------------+------+---------+---------+------------------+

 ======================================================================
 |                        Timescale Information                       |
 ----------------------------------------------------------------------
 |       Equation       |         Type          |      Timescale      |
 +----------------------+-----------------------+---------------------+
 | U-Mom                | Auto Timescale        |     2.29471E-01     |
 | V-Mom                | Auto Timescale        |     2.29471E-01     |
 | W-Mom                | Auto Timescale        |     2.29471E-01     |
 +----------------------+-----------------------+---------------------+
 | H-Energy             | Auto Timescale        |     2.29471E-01     |
 +----------------------+-----------------------+---------------------+
 | K-TurbKE             | Auto Timescale        |     2.29471E-01     |
 | E-Diss.K             | Auto Timescale        |     2.29471E-01     |
 +----------------------+-----------------------+---------------------+

 ======================================================================
 OUTER LOOP ITERATION =  356 (   29) CPU SECONDS = 2.198E+02 (1.229E+01)
 ----------------------------------------------------------------------
 |       Equation       | Rate | RMS Res | Max Res |  Linear Solution |
 +----------------------+------+---------+---------+------------------+
 | U-Mom                | 0.92 | 1.0E-04 | 1.3E-03 |       5.2E-02  OK|
 | V-Mom                | 0.94 | 1.0E-04 | 1.2E-03 |       5.6E-02  OK|
 | W-Mom                | 0.98 | 7.4E-05 | 1.6E-03 |       8.1E-02  OK|
 | P-Mass               | 0.95 | 1.8E-05 | 2.0E-04 |  5.5  8.8E-02  OK|
 +----------------------+------+---------+---------+------------------+
 | H-Energy             | 0.93 | 2.1E-04 | 1.8E-03 |  5.5  1.4E-02  OK|
 +----------------------+------+---------+---------+------------------+
 | K-TurbKE             | 0.93 | 1.5E-04 | 1.3E-03 |  5.5  1.2E-02  OK|
 | E-Diss.K             | 0.91 | 7.0E-05 | 1.1E-03 |  8.0  6.2E-03  OK|
 +----------------------+------+---------+---------+------------------+

 ======================================================================
 OUTER LOOP ITERATION =  357 (   30) CPU SECONDS = 2.201E+02 (1.259E+01)
 ----------------------------------------------------------------------
 |       Equation       | Rate | RMS Res | Max Res |  Linear Solution |
 +----------------------+------+---------+---------+------------------+
 | U-Mom                | 0.93 | 9.5E-05 | 1.3E-03 |       5.0E-02  OK|
 | V-Mom                | 0.95 | 1.0E-04 | 1.1E-03 |       5.5E-02  OK|
 | W-Mom                | 0.98 | 7.3E-05 | 1.6E-03 |       7.7E-02  OK|
 | P-Mass               | 0.90 | 1.6E-05 | 2.0E-04 |  5.5  8.3E-02  OK|
 +----------------------+------+---------+---------+------------------+
 | H-Energy             | 0.93 | 1.9E-04 | 1.8E-03 |  5.5  1.4E-02  OK|
 +----------------------+------+---------+---------+------------------+
 | K-TurbKE             | 0.93 | 1.4E-04 | 1.2E-03 |  5.5  1.2E-02  OK|
 | E-Diss.K             | 0.94 | 6.5E-05 | 1.1E-03 |  8.0  6.3E-03  OK|
 +----------------------+------+---------+---------+------------------+

 ======================================================================
 OUTER LOOP ITERATION =  358 (   31) CPU SECONDS = 2.204E+02 (1.290E+01)
 ----------------------------------------------------------------------
 |       Equation       | Rate | RMS Res | Max Res |  Linear Solution |
 +----------------------+------+---------+---------+------------------+
 | U-Mom                | 0.94 | 9.0E-05 | 1.1E-03 |       4.9E-02  OK|
 | V-Mom                | 0.95 | 9.5E-05 | 1.0E-03 |       5.4E-02  OK|
 | W-Mom                | 0.97 | 7.1E-05 | 1.7E-03 |       7.6E-02  OK|
 | P-Mass               | 0.93 | 1.5E-05 | 1.8E-04 |  5.5  8.2E-02  OK|
 +----------------------+------+---------+---------+------------------+
 | H-Energy             | 0.94 | 1.8E-04 | 1.7E-03 |  5.5  1.5E-02  OK|
 +----------------------+------+---------+---------+------------------+
 | K-TurbKE             | 0.93 | 1.3E-04 | 1.1E-03 |  5.5  1.2E-02  OK|
 | E-Diss.K             | 0.94 | 6.1E-05 | 1.0E-03 |  8.0  6.3E-03  OK|
 +----------------------+------+---------+---------+------------------+

 ======================================================================
 OUTER LOOP ITERATION =  359 (   32) CPU SECONDS = 2.207E+02 (1.320E+01)
 ----------------------------------------------------------------------
 |       Equation       | Rate | RMS Res | Max Res |  Linear Solution |
 +----------------------+------+---------+---------+------------------+
 | U-Mom                | 0.95 | 8.5E-05 | 1.0E-03 |       4.8E-02  OK|
 | V-Mom                | 0.95 | 9.1E-05 | 9.4E-04 |       5.3E-02  OK|
 | W-Mom                | 0.97 | 6.8E-05 | 1.6E-03 |       7.3E-02  OK|
 | P-Mass               | 0.94 | 1.4E-05 | 1.7E-04 |  5.5  8.0E-02  OK|
 +----------------------+------+---------+---------+------------------+
 | H-Energy             | 0.94 | 1.7E-04 | 1.6E-03 |  5.5  1.5E-02  OK|
 +----------------------+------+---------+---------+------------------+
 | K-TurbKE             | 0.93 | 1.2E-04 | 1.0E-03 |  5.6  1.2E-02  OK|
 | E-Diss.K             | 0.95 | 5.8E-05 | 1.0E-03 |  8.0  6.3E-03  OK|
 +----------------------+------+---------+---------+------------------+

 ======================================================================
 OUTER LOOP ITERATION =  360 (   33) CPU SECONDS = 2.210E+02 (1.351E+01)
 ----------------------------------------------------------------------
 |       Equation       | Rate | RMS Res | Max Res |  Linear Solution |
 +----------------------+------+---------+---------+------------------+
 | U-Mom                | 0.95 | 8.0E-05 | 9.4E-04 |       4.8E-02  OK|
 | V-Mom                | 0.95 | 8.6E-05 | 9.0E-04 |       5.3E-02  OK|
 | W-Mom                | 0.96 | 6.6E-05 | 1.6E-03 |       6.9E-02  OK|
 | P-Mass               | 0.94 | 1.4E-05 | 1.6E-04 |  5.5  7.8E-02  OK|
 +----------------------+------+---------+---------+------------------+
 | H-Energy             | 0.94 | 1.6E-04 | 1.4E-03 |  5.5  1.5E-02  OK|
 +----------------------+------+---------+---------+------------------+
 | K-TurbKE             | 0.93 | 1.1E-04 | 9.3E-04 |  5.5  1.2E-02  OK|
 | E-Diss.K             | 0.96 | 5.6E-05 | 9.8E-04 |  8.0  6.3E-03  OK|
 +----------------------+------+---------+---------+------------------+

 ======================================================================
 |                        Timescale Information                       |
 ----------------------------------------------------------------------
 |       Equation       |         Type          |      Timescale      |
 +----------------------+-----------------------+---------------------+
 | U-Mom                | Auto Timescale        |     2.29261E-01     |
 | V-Mom                | Auto Timescale        |     2.29261E-01     |
 | W-Mom                | Auto Timescale        |     2.29261E-01     |
 +----------------------+-----------------------+---------------------+
 | H-Energy             | Auto Timescale        |     2.29261E-01     |
 +----------------------+-----------------------+---------------------+
 | K-TurbKE             | Auto Timescale        |     2.29261E-01     |
 | E-Diss.K             | Auto Timescale        |     2.29261E-01     |
 +----------------------+-----------------------+---------------------+

 ======================================================================
 OUTER LOOP ITERATION =  361 (   34) CPU SECONDS = 2.213E+02 (1.381E+01)
 ----------------------------------------------------------------------
 |       Equation       | Rate | RMS Res | Max Res |  Linear Solution |
 +----------------------+------+---------+---------+------------------+
 | U-Mom                | 0.95 | 7.7E-05 | 8.4E-04 |       4.7E-02  OK|
 | V-Mom                | 0.95 | 8.2E-05 | 8.6E-04 |       5.2E-02  OK|
 | W-Mom                | 0.96 | 6.4E-05 | 1.5E-03 |       6.5E-02  OK|
 | P-Mass               | 0.95 | 1.3E-05 | 1.4E-04 |  5.5  7.6E-02  OK|
 +----------------------+------+---------+---------+------------------+
 | H-Energy             | 0.94 | 1.5E-04 | 1.5E-03 |  5.5  1.5E-02  OK|
 +----------------------+------+---------+---------+------------------+
 | K-TurbKE             | 0.93 | 1.0E-04 | 8.6E-04 |  5.5  1.2E-02  OK|
 | E-Diss.K             | 0.97 | 5.4E-05 | 9.7E-04 |  8.0  6.4E-03  OK|
 +----------------------+------+---------+---------+------------------+

 ======================================================================
 OUTER LOOP ITERATION =  362 (   35) CPU SECONDS = 2.216E+02 (1.409E+01)
 ----------------------------------------------------------------------
 |       Equation       | Rate | RMS Res | Max Res |  Linear Solution |
 +----------------------+------+---------+---------+------------------+
 | U-Mom                | 0.96 | 7.4E-05 | 7.8E-04 |       4.7E-02  OK|
 | V-Mom                | 0.95 | 7.7E-05 | 8.1E-04 |       5.1E-02  OK|
 | W-Mom                | 0.96 | 6.1E-05 | 1.5E-03 |       6.2E-02  OK|
 | P-Mass               | 0.95 | 1.2E-05 | 1.3E-04 |  5.5  7.4E-02  OK|
 +----------------------+------+---------+---------+------------------+
 | H-Energy             | 0.94 | 1.4E-04 | 1.6E-03 |  5.5  1.5E-02  OK|
 +----------------------+------+---------+---------+------------------+
 | K-TurbKE             | 0.93 | 9.6E-05 | 7.8E-04 |  5.5  1.2E-02  OK|
 | E-Diss.K             | 0.99 | 5.4E-05 | 9.6E-04 |  8.0  6.6E-03  OK|
 +----------------------+------+---------+---------+------------------+

 ======================================================================
 OUTER LOOP ITERATION =  363 (   36) CPU SECONDS = 2.219E+02 (1.440E+01)
 ----------------------------------------------------------------------
 |       Equation       | Rate | RMS Res | Max Res |  Linear Solution |
 +----------------------+------+---------+---------+------------------+
 | U-Mom                | 0.97 | 7.2E-05 | 7.7E-04 |       4.6E-02  OK|
 | V-Mom                | 0.95 | 7.3E-05 | 7.5E-04 |       5.1E-02  OK|
 | W-Mom                | 0.96 | 5.8E-05 | 1.4E-03 |       5.9E-02  OK|
 | P-Mass               | 0.95 | 1.2E-05 | 1.2E-04 |  5.5  7.2E-02  OK|
 +----------------------+------+---------+---------+------------------+
 | H-Energy             | 0.94 | 1.3E-04 | 1.6E-03 |  5.6  1.5E-02  OK|
 +----------------------+------+---------+---------+------------------+
 | K-TurbKE             | 0.93 | 8.9E-05 | 7.2E-04 |  5.5  1.2E-02  OK|
 | E-Diss.K             | 1.00 | 5.4E-05 | 9.5E-04 |  8.0  6.7E-03  OK|
 +----------------------+------+---------+---------+------------------+

 ======================================================================
 OUTER LOOP ITERATION =  364 (   37) CPU SECONDS = 2.222E+02 (1.471E+01)
 ----------------------------------------------------------------------
 |       Equation       | Rate | RMS Res | Max Res |  Linear Solution |
 +----------------------+------+---------+---------+------------------+
 | U-Mom                | 0.98 | 7.0E-05 | 7.7E-04 |       4.6E-02  OK|
 | V-Mom                | 0.95 | 6.9E-05 | 7.0E-04 |       5.0E-02  OK|
 | W-Mom                | 0.96 | 5.6E-05 | 1.3E-03 |       5.7E-02  OK|
 | P-Mass               | 0.95 | 1.1E-05 | 1.1E-04 |  5.5  7.1E-02  OK|
 +----------------------+------+---------+---------+------------------+
 | H-Energy             | 0.94 | 1.3E-04 | 1.5E-03 |  5.5  1.5E-02  OK|
 +----------------------+------+---------+---------+------------------+
 | K-TurbKE             | 0.93 | 8.3E-05 | 6.5E-04 |  5.5  1.3E-02  OK|
 | E-Diss.K             | 1.00 | 5.4E-05 | 9.2E-04 |  8.0  6.9E-03  OK|
 +----------------------+------+---------+---------+------------------+

 ======================================================================
 OUTER LOOP ITERATION =  365 (   38) CPU SECONDS = 2.225E+02 (1.502E+01)
 ----------------------------------------------------------------------
 |       Equation       | Rate | RMS Res | Max Res |  Linear Solution |
 +----------------------+------+---------+---------+------------------+
 | U-Mom                | 0.98 | 6.8E-05 | 8.3E-04 |       4.5E-02  OK|
 | V-Mom                | 0.95 | 6.5E-05 | 6.4E-04 |       4.9E-02  OK|
 | W-Mom                | 0.96 | 5.3E-05 | 1.3E-03 |       5.5E-02  OK|
 | P-Mass               | 0.95 | 1.0E-05 | 9.9E-05 |  5.5  7.0E-02  OK|
 +----------------------+------+---------+---------+------------------+
 | H-Energy             | 0.94 | 1.2E-04 | 1.2E-03 |  5.5  1.5E-02  OK|
 +----------------------+------+---------+---------+------------------+
 | K-TurbKE             | 0.93 | 7.8E-05 | 5.9E-04 |  5.5  1.3E-02  OK|
 | E-Diss.K             | 1.00 | 5.4E-05 | 8.9E-04 |  8.0  7.2E-03  OK|
 +----------------------+------+---------+---------+------------------+

 ======================================================================
 |                        Timescale Information                       |
 ----------------------------------------------------------------------
 |       Equation       |         Type          |      Timescale      |
 +----------------------+-----------------------+---------------------+
 | U-Mom                | Auto Timescale        |     2.28998E-01     |
 | V-Mom                | Auto Timescale        |     2.28998E-01     |
 | W-Mom                | Auto Timescale        |     2.28998E-01     |
 +----------------------+-----------------------+---------------------+
 | H-Energy             | Auto Timescale        |     2.28998E-01     |
 +----------------------+-----------------------+---------------------+
 | K-TurbKE             | Auto Timescale        |     2.28998E-01     |
 | E-Diss.K             | Auto Timescale        |     2.28998E-01     |
 +----------------------+-----------------------+---------------------+

 ======================================================================
 OUTER LOOP ITERATION =  366 (   39) CPU SECONDS = 2.228E+02 (1.533E+01)
 ----------------------------------------------------------------------
 |       Equation       | Rate | RMS Res | Max Res |  Linear Solution |
 +----------------------+------+---------+---------+------------------+
 | U-Mom                | 0.98 | 6.7E-05 | 8.9E-04 |       4.4E-02  OK|
 | V-Mom                | 0.95 | 6.2E-05 | 5.8E-04 |       4.8E-02  OK|
 | W-Mom                | 0.95 | 5.1E-05 | 1.2E-03 |       5.3E-02  OK|
 | P-Mass               | 0.94 | 9.8E-06 | 9.2E-05 |  5.5  6.9E-02  OK|
 +----------------------+------+---------+---------+------------------+
 | H-Energy             | 0.94 | 1.1E-04 | 1.2E-03 |  5.5  1.5E-02  OK|
 +----------------------+------+---------+---------+------------------+
 | K-TurbKE             | 0.94 | 7.3E-05 | 5.4E-04 |  5.5  1.3E-02  OK|
 | E-Diss.K             | 1.00 | 5.3E-05 | 8.6E-04 |  8.0  7.4E-03  OK|
 +----------------------+------+---------+---------+------------------+

 ======================================================================
 OUTER LOOP ITERATION =  367 (   40) CPU SECONDS = 2.231E+02 (1.563E+01)
 ----------------------------------------------------------------------
 |       Equation       | Rate | RMS Res | Max Res |  Linear Solution |
 +----------------------+------+---------+---------+------------------+
 | U-Mom                | 0.99 | 6.6E-05 | 9.3E-04 |       4.4E-02  OK|
 | V-Mom                | 0.95 | 5.9E-05 | 5.4E-04 |       4.8E-02  OK|
 | W-Mom                | 0.96 | 4.8E-05 | 1.1E-03 |       5.2E-02  OK|
 | P-Mass               | 0.94 | 9.2E-06 | 8.4E-05 |  5.5  6.8E-02  OK|
 +----------------------+------+---------+---------+------------------+
 | H-Energy             | 0.95 | 1.1E-04 | 1.1E-03 |  5.5  1.5E-02  OK|
 +----------------------+------+---------+---------+------------------+
 | K-TurbKE             | 0.94 | 6.8E-05 | 4.9E-04 |  5.5  1.3E-02  OK|
 | E-Diss.K             | 0.99 | 5.3E-05 | 8.3E-04 |  8.0  7.7E-03  OK|
 +----------------------+------+---------+---------+------------------+

 ======================================================================
 OUTER LOOP ITERATION =  368 (   41) CPU SECONDS = 2.234E+02 (1.593E+01)
 ----------------------------------------------------------------------
 |       Equation       | Rate | RMS Res | Max Res |  Linear Solution |
 +----------------------+------+---------+---------+------------------+
 | U-Mom                | 0.99 | 6.5E-05 | 9.7E-04 |       4.4E-02  OK|
 | V-Mom                | 0.95 | 5.6E-05 | 5.5E-04 |       4.7E-02  OK|
 | W-Mom                | 0.96 | 4.6E-05 | 1.0E-03 |       5.0E-02  OK|
 | P-Mass               | 0.94 | 8.7E-06 | 7.7E-05 |  5.5  6.8E-02  OK|
 +----------------------+------+---------+---------+------------------+
 | H-Energy             | 0.95 | 1.0E-04 | 1.1E-03 |  5.5  1.5E-02  OK|
 +----------------------+------+---------+---------+------------------+
 | K-TurbKE             | 0.94 | 6.4E-05 | 4.4E-04 |  5.5  1.4E-02  OK|
 | E-Diss.K             | 0.99 | 5.2E-05 | 7.9E-04 |  8.0  8.0E-03  OK|
 +----------------------+------+---------+---------+------------------+

 ======================================================================
 OUTER LOOP ITERATION =  369 (   42) CPU SECONDS = 2.237E+02 (1.623E+01)
 ----------------------------------------------------------------------
 |       Equation       | Rate | RMS Res | Max Res |  Linear Solution |
 +----------------------+------+---------+---------+------------------+
 | U-Mom                | 0.99 | 6.5E-05 | 1.0E-03 |       4.4E-02  OK|
 | V-Mom                | 0.95 | 5.3E-05 | 5.6E-04 |       4.6E-02  OK|
 | W-Mom                | 0.96 | 4.5E-05 | 9.5E-04 |       4.9E-02  OK|
 | P-Mass               | 0.94 | 8.2E-06 | 7.1E-05 |  5.5  6.8E-02  OK|
 +----------------------+------+---------+---------+------------------+
 | H-Energy             | 0.95 | 9.6E-05 | 1.1E-03 |  5.6  1.5E-02  OK|
 +----------------------+------+---------+---------+------------------+
 | K-TurbKE             | 0.95 | 6.1E-05 | 3.9E-04 |  5.5  1.4E-02  OK|
 | E-Diss.K             | 0.98 | 5.1E-05 | 7.7E-04 |  8.0  8.3E-03  OK|
 +----------------------+------+---------+---------+------------------+
                   
 CFD Solver finished: Wed Dec  5 14:25:16 2018
 CFD Solver wall clock seconds: 1.3122E+01

 ======================================================================
              Termination and Interrupt Condition Summary
 ======================================================================
    
 CFD Solver: All target criteria reached
   (Equation residuals)

 ======================================================================
              Boundary Flow and Total Source Term Summary
 ======================================================================

 +--------------------------------------------------------------------+
 |                               U-Mom                                |
 +--------------------------------------------------------------------+
 Boundary         : Default Domain Default                  3.3880E+01
 Boundary         : in1                                     6.6944E-05
 Boundary         : in2                                    -5.8820E-05
 Boundary         : out                                    -2.7849E+01
                                                           -----------
 Domain Imbalance :                                         6.0304E+00

 +--------------------------------------------------------------------+
 |                               V-Mom                                |
 +--------------------------------------------------------------------+
 Boundary         : Default Domain Default                  2.5436E+01
 Boundary         : in1                                     4.7636E+04
 Boundary         : in2                                    -4.7660E+04
 Boundary         : out                                    -1.0517E+01
                                                           -----------
 Domain Imbalance :                                        -8.9620E+00

 +--------------------------------------------------------------------+
 |                               W-Mom                                |
 +--------------------------------------------------------------------+
 Boundary         : Default Domain Default                 -1.2018E+04
 Boundary         : in1                                    -2.4823E-05
 Boundary         : in2                                    -1.7396E-05
 Boundary         : out                                     1.2039E+04
                                                           -----------
 Domain Imbalance :                                         2.0950E+01

 +--------------------------------------------------------------------+
 |                               P-Mass                               |
 +--------------------------------------------------------------------+
 Boundary         : in1                                     1.5000E+03
 Boundary         : in2                                     1.5000E+03
 Boundary         : out                                    -2.9999E+03
                                                           -----------
 Domain Imbalance :                                         7.7393E-02

 +--------------------------------------------------------------------+
 |                              H-Energy                              |
 +--------------------------------------------------------------------+
 Boundary         : in1                                     1.0569E+08
 Boundary         : in2                                    -8.2484E+07
 Boundary         : out                                    -2.3599E+07
                                                           -----------
 Domain Imbalance :                                        -3.9086E+05


 +--------------------------------------------------------------------+
 |                     Normalised Imbalance Summary                   |
 +--------------------------------------------------------------------+
 |       Equation       |      Maximum Flow     |     Imbalance (%)   |
 +--------------------------------------------------------------------+
 | U-Mom                |       4.7660E+04      |        0.0127       |
 | V-Mom                |       4.7660E+04      |       -0.0188       |
 | W-Mom                |       4.7660E+04      |        0.0440       |
 | P-Mass               |       2.9999E+03      |        0.0026       |
 +----------------------+-----------------------+---------------------+
 | H-Energy             |       1.0569E+08      |       -0.3698       |
 +----------------------+-----------------------+---------------------+

 ======================================================================
                     Wall Force and Moment Summary
 ======================================================================
                                                                          
 Notes:
 1. Pressure integrals exclude the reference pressure.  To include
    it, set the expert parameter 'include pref in forces = t'.


 +--------------------------------------------------------------------+
 |                      Pressure Force On Walls                       |
 +--------------------------------------------------------------------+
                                    X-Comp.      Y-Comp.      Z-Comp.

 Domain Group: Default Domain

 Default Domain Default          -4.1017E+01  -3.5211E+01   1.2100E+04
                                  -----------  -----------  -----------
 Domain Group Totals :           -4.1017E+01  -3.5211E+01   1.2100E+04


 +--------------------------------------------------------------------+
 |                       Viscous Force On Walls                       |
 +--------------------------------------------------------------------+
                                    X-Comp.      Y-Comp.      Z-Comp.

 Domain Group: Default Domain

 Default Domain Default           7.1318E+00   9.7574E+00  -8.2689E+01
                                  -----------  -----------  -----------
 Domain Group Totals :            7.1318E+00   9.7574E+00  -8.2689E+01


 +--------------------------------------------------------------------+
 |                      Pressure Moment On Walls                      |
 +--------------------------------------------------------------------+
                                    X-Comp.      Y-Comp.      Z-Comp.

 Domain Group: Default Domain

 Default Domain Default           1.3166E+02   2.4294E+01  -7.8616E+04
                                  -----------  -----------  -----------
 Domain Group Totals :            1.3166E+02   2.4294E+01  -7.8616E+04


 +--------------------------------------------------------------------+
 |                       Viscous Moment On Walls                      |
 +--------------------------------------------------------------------+
                                    X-Comp.      Y-Comp.      Z-Comp.

 Domain Group: Default Domain

 Default Domain Default          -4.5369E+00   8.0623E+00  -3.8922E+03
                                  -----------  -----------  -----------
 Domain Group Totals :           -4.5369E+00   8.0623E+00  -3.8922E+03


 +--------------------------------------------------------------------+
 |                   Locations of Maximum Residuals                   |
 +--------------------------------------------------------------------+
 |       Equation       |      Domain Name      |     Node Number     |
 +--------------------------------------------------------------------+
 | U-Mom                | Default Domain        |           7164      |
 | V-Mom                | Default Domain        |           7143      |
 | W-Mom                | Default Domain        |           7834      |
 | P-Mass               | Default Domain        |           6810      |
 +----------------------+-----------------------+---------------------+
 | H-Energy             | Default Domain        |           7570      |
 +----------------------+-----------------------+---------------------+
 | K-TurbKE             | Default Domain        |            869      |
 | E-Diss.K             | Default Domain        |           7559      |
 +----------------------+-----------------------+---------------------+

 ======================================================================
 |                     False Transient Information                    |
 +--------------------------------------------------------------------+
 |       Equation       |         Type          | Elapsed Pseudo-Time |
 +--------------------------------------------------------------------+
 | U-Mom                | Auto Timescale        |     9.50652E+00     |
 | V-Mom                | Auto Timescale        |     9.50652E+00     |
 | W-Mom                | Auto Timescale        |     9.50652E+00     |
 +----------------------+-----------------------+---------------------+
 | H-Energy             | Auto Timescale        |     9.50652E+00     |
 +----------------------+-----------------------+---------------------+
 | K-TurbKE             | Auto Timescale        |     9.50652E+00     |
 | E-Diss.K             | Auto Timescale        |     9.50652E+00     |
 +----------------------+-----------------------+---------------------+

 +--------------------------------------------------------------------+
 |                     Average Scale Information                      |
 +--------------------------------------------------------------------+

 Domain Name : Default Domain
     Global Length                                         = 3.2172E+00
     Minimum Extent                                        = 4.0000E+00
     Maximum Extent                                        = 6.0000E+00
     Density                                               = 9.9700E+02
     Dynamic Viscosity                                     = 8.8990E-04
     Velocity                                              = 4.4915E+00
     Advection Time                                        = 7.1629E-01
     Reynolds Number                                       = 1.6189E+07
     Thermal Conductivity                                  = 6.0690E-01
     Specific Heat Capacity at Constant Pressure           = 4.1817E+03
     Prandtl Number                                        = 6.1316E+00
     Temperature Range                                     = 3.0052E+01

 +--------------------------------------------------------------------+
 |                     Variable Range Information                     |
 +--------------------------------------------------------------------+

 Domain Name : Default Domain
 +--------------------------------------------------------------------+
 |      Variable Name                         |    min    |    max    |
 +--------------------------------------------------------------------+
 | Density                                    |  9.97E+02 |  9.97E+02 |
 | Specific Heat Capacity at Constant Pressure|  4.18E+03 |  4.18E+03 |
 | Dynamic Viscosity                          |  8.90E-04 |  8.90E-04 |
 | Thermal Conductivity                       |  6.07E-01 |  6.07E-01 |
 | Static Entropy                             | -1.89E+02 |  2.30E+02 |
 | Velocity u                                 | -5.81E+00 |  5.77E+00 |
 | Velocity v                                 | -5.98E+00 |  6.09E+00 |
 | Velocity w                                 | -5.04E+00 |  1.79E+00 |
 | Pressure                                   | -7.85E+03 |  5.94E+04 |
 | Turbulence Kinetic Energy                  |  1.09E-04 |  3.24E+00 |
 | Turbulence Eddy Dissipation                |  3.11E-04 |  1.17E+02 |
 | Eddy Viscosity                             |  1.04E-03 |  2.37E+02 |
 | Temperature                                |  2.85E+02 |  3.15E+02 |
 | Static Enthalpy                            | -5.51E+04 |  7.06E+04 |
 +--------------------------------------------------------------------+

 +--------------------------------------------------------------------+
 |               CPU Requirements of Numerical Solution               |
 +--------------------------------------------------------------------+

 Subsystem Name                  Discretization       Linear Solution
                                (secs.   %total)     (secs.   %total) 
 ----------------------------------------------------------------------
 Momentum and Mass              4.60E+00  24.2 %     9.66E-01   5.1 %
 Heat Transfer                  1.62E+00   8.5 %     5.00E-01   2.6 %
 TurbKE and Diss.K              2.35E+00  12.3 %     1.13E+00   6.0 %
                                -------- -------     --------  ------
 Subsystem Summary              8.57E+00  45.0 %     2.60E+00  13.7 %

 File Reading                   1.40E-02    0.1 %
 Search Calculations            9.99E-04    0.0 %
 Variable Updates               1.76E+00    9.2 %
 File Writing                   1.31E-01    0.7 %
 Miscellaneous                  5.97E+00   31.3 %
                                --------
 Total                          1.90E+01

 +--------------------------------------------------------------------+
 |                   Job Information at End of Run                    |
 +--------------------------------------------------------------------+

 Host computer:  ENPC-LAB137 (PID:8300)

 Job finished:   Wed Dec  5 14:25:19 2018

 Total wall clock time: 1.903E+01 seconds
             or: (          0:         0:         0:    19.032 )
                 (       Days:     Hours:   Minutes:   Seconds )

End of solution stage.

 +--------------------------------------------------------------------+
 | The results from this run of the ANSYS CFX Solver have been        |
 | written to                                                         |
 | H:/dos/CFD/CW/CFD-Static-Mixer/StaticMixerDX_pending/dp3_CFX_Solu- |
 | tion/Fluid Flow CFX_007.res                                        |
 +--------------------------------------------------------------------+


 +--------------------------------------------------------------------+
 | For CFX runs launched from Workbench, the final locations of       |
 | directories and files generated may differ from those shown.       |
 +--------------------------------------------------------------------+


This run of the ANSYS CFX Solver has finished.
