 This run of the CFX Release 19.1 Solver started at 14:00:04 on 05 Dec
 2018 by user jc2182 on ENPC-LAB137 (intel_xeon64.sse2_winnt) using the
 command:
 
  "C:\Program Files\ANSYS Inc\v191\CFX\bin\perllib\cfx5solve.pl" -batch
    -ccl runInput.ccl -fullname "Fluid Flow CFX_004"
 
 Release 19.1
 
  Point Releases and Patches installed:
  ANSYS, Inc. Products Release 19.1
  SpaceClaim Release 19.1
  Autodyn Release 19.1
  LS-DYNA Release 19.1
  CFD-Post only Release 19.1
  CFX (includes CFD-Post) Release 19.1
  Chemkin Release 19.1
  EnSight Release 19.1
  FENSAP-ICE Release 19.1
  Fluent (includes CFD-Post) Release 19.1
  Forte Release 19.1
  Polyflow (includes CFD-Post) Release 19.1
  TurboGrid Release 19.1
  ICEM CFD Release 19.1
  Customization Files for User Programmable Features Release 19.1
  Mechanical Products Release 19.1
  Icepak (includes CFD-Post) Release 19.1
  Remote Solve Manager Standalone Services Release 19.1
  ACIS Geometry Interface Release 19.1
  Catia, Version 5 Geometry Interface Release 19.1
  NX Geometry Interface Release 19.1
  Parasolid Geometry Interface  Release 19.1
  ANSYS, Inc. License Manager Release 19.1
 
 Setting up CFX Solver run ...
 
 
 +--------------------------------------------------------------------+
 |                                                                    |
 |                    CFX Command Language for Run                    |
 |                                                                    |
 +--------------------------------------------------------------------+
 
 LIBRARY:
   CEL:
     EXPRESSIONS:
       inMassFlow = 1500 [kg s^-1]
     END
   END
   MATERIAL: Water
     Material Description = Water (liquid)
     Material Group = Water Data, Constant Property Liquids
     Option = Pure Substance
     Thermodynamic State = Liquid
     PROPERTIES:
       Option = General Material
       EQUATION OF STATE:
         Density = 997.0 [kg m^-3]
         Molar Mass = 18.02 [kg kmol^-1]
         Option = Value
       END
       SPECIFIC HEAT CAPACITY:
         Option = Value
         Specific Heat Capacity = 4181.7 [J kg^-1 K^-1]
         Specific Heat Type = Constant Pressure
       END
       REFERENCE STATE:
         Option = Specified Point
         Reference Pressure = 1 [atm]
         Reference Specific Enthalpy = 0.0 [J/kg]
         Reference Specific Entropy = 0.0 [J/kg/K]
         Reference Temperature = 25 [C]
       END
       DYNAMIC VISCOSITY:
         Dynamic Viscosity = 8.899E-4 [kg m^-1 s^-1]
         Option = Value
       END
       THERMAL CONDUCTIVITY:
         Option = Value
         Thermal Conductivity = 0.6069 [W m^-1 K^-1]
       END
       ABSORPTION COEFFICIENT:
         Absorption Coefficient = 1.0 [m^-1]
         Option = Value
       END
       SCATTERING COEFFICIENT:
         Option = Value
         Scattering Coefficient = 0.0 [m^-1]
       END
       REFRACTIVE INDEX:
         Option = Value
         Refractive Index = 1.0 [m m^-1]
       END
       THERMAL EXPANSIVITY:
         Option = Value
         Thermal Expansivity = 2.57E-04 [K^-1]
       END
     END
   END
 END
 FLOW: Flow Analysis 1
   SOLUTION UNITS:
     Angle Units = [rad]
     Length Units = [m]
     Mass Units = [kg]
     Solid Angle Units = [sr]
     Temperature Units = [K]
     Time Units = [s]
   END
   ANALYSIS TYPE:
     Option = Steady State
     EXTERNAL SOLVER COUPLING:
       Option = None
     END
   END
   DOMAIN: Default Domain
     Coord Frame = Coord 0
     Domain Type = Fluid
     Location = B17
     BOUNDARY: Default Domain Default
       Boundary Type = WALL
       Location = F12.17,F14.17,F16.17,F19.17,F20.17,F21.17
       BOUNDARY CONDITIONS:
         HEAT TRANSFER:
           Option = Adiabatic
         END
         MASS AND MOMENTUM:
           Option = No Slip Wall
         END
         WALL ROUGHNESS:
           Option = Smooth Wall
         END
       END
     END
     BOUNDARY: in1
       Boundary Type = INLET
       Location = in1
       BOUNDARY CONDITIONS:
         FLOW DIRECTION:
           Option = Normal to Boundary Condition
         END
         FLOW REGIME:
           Option = Subsonic
         END
         HEAT TRANSFER:
           Option = Static Temperature
           Static Temperature = 315 [K]
         END
         MASS AND MOMENTUM:
           Mass Flow Rate = inMassFlow
           Mass Flow Rate Area = As Specified
           Option = Mass Flow Rate
         END
         TURBULENCE:
           Option = Medium Intensity and Eddy Viscosity Ratio
         END
       END
     END
     BOUNDARY: in2
       Boundary Type = INLET
       Location = in2
       BOUNDARY CONDITIONS:
         FLOW DIRECTION:
           Option = Normal to Boundary Condition
         END
         FLOW REGIME:
           Option = Subsonic
         END
         HEAT TRANSFER:
           Option = Static Temperature
           Static Temperature = 285 [K]
         END
         MASS AND MOMENTUM:
           Mass Flow Rate = inMassFlow
           Mass Flow Rate Area = As Specified
           Option = Mass Flow Rate
         END
         TURBULENCE:
           Option = Medium Intensity and Eddy Viscosity Ratio
         END
       END
     END
     BOUNDARY: out
       Boundary Type = OUTLET
       Location = out
       BOUNDARY CONDITIONS:
         FLOW REGIME:
           Option = Subsonic
         END
         MASS AND MOMENTUM:
           Option = Static Pressure
           Relative Pressure = 0 [Pa]
         END
       END
     END
     DOMAIN MODELS:
       BUOYANCY MODEL:
         Option = Non Buoyant
       END
       DOMAIN MOTION:
         Option = Stationary
       END
       MESH DEFORMATION:
         Option = None
       END
       REFERENCE PRESSURE:
         Reference Pressure = 1 [atm]
       END
     END
     FLUID DEFINITION: Fluid 1
       Material = Water
       Option = Material Library
       MORPHOLOGY:
         Option = Continuous Fluid
       END
     END
     FLUID MODELS:
       COMBUSTION MODEL:
         Option = None
       END
       HEAT TRANSFER MODEL:
         Option = Thermal Energy
       END
       THERMAL RADIATION MODEL:
         Option = None
       END
       TURBULENCE MODEL:
         Option = k epsilon
       END
       TURBULENT WALL FUNCTIONS:
         Option = Scalable
       END
     END
   END
   OUTPUT CONTROL:
     RESULTS:
       File Compression Level = Default
       Option = Standard
     END
   END
   SOLVER CONTROL:
     Turbulence Numerics = High Resolution
     ADVECTION SCHEME:
       Option = High Resolution
     END
     CONVERGENCE CONTROL:
       Length Scale Option = Conservative
       Maximum Number of Iterations = 100
       Minimum Number of Iterations = 5
       Timescale Control = Auto Timescale
       Timescale Factor = 1.0
     END
     CONVERGENCE CRITERIA:
       Residual Target = 1.E-4
       Residual Type = RMS
     END
     DYNAMIC MODEL CONTROL:
       Global Dynamic Model Control = On
     END
   END
 END
 COMMAND FILE:
   Version = 19.1
   Results Version = 19.1
 END
 PARAMETERIZATION:
   INPUT FIELD: inMassFlow
     Expression Name = inMassFlow
     Method = Expression
   END
 END
 SIMULATION CONTROL:
   EXECUTION CONTROL:
     EXECUTABLE SELECTION:
       Double Precision = No
       Large Problem = No
     END
     INTERPOLATOR STEP CONTROL:
       Runtime Priority = Standard
       MEMORY CONTROL:
         Memory Allocation Factor = 1.0
       END
     END
     PARALLEL HOST LIBRARY:
       HOST DEFINITION: enpclab137
         Remote Host Name = ENPC-LAB137
         Host Architecture String = winnt-amd64
         Installation Root = C:\Program Files\ANSYS Inc\v%v\CFX
       END
     END
     PARTITIONER STEP CONTROL:
       Multidomain Option = Automatic
       Runtime Priority = Standard
       MEMORY CONTROL:
         Memory Allocation Factor = 1.0
       END
       PARTITION SMOOTHING:
         Maximum Partition Smoothing Sweeps = 100
         Option = Smooth
       END
       PARTITIONING TYPE:
         MeTiS Type = k-way
         Option = MeTiS
         Partition Size Rule = Automatic
       END
     END
     RUN DEFINITION:
       Run Mode = Full
       Solver Input File = Fluid Flow CFX.def
       Solver Results File = \
         H:/dos/CFD/CW/CFD-Static-Mixer/StaticMixerDX_pending/dp4_CFX_Solution\
         /Fluid Flow CFX_004.res
       INITIAL VALUES SPECIFICATION:
         INITIAL VALUES CONTROL:
           Use Mesh From = Solver Input File
           Continue History From = Workbench Initial Values
         END
         INITIAL VALUES: Workbench Initial Values
           Option = Results File
           File Name = Fluid Flow CFX_003.res
         END
       END
     END
     SOLVER STEP CONTROL:
       Runtime Priority = Standard
       MEMORY CONTROL:
         Memory Allocation Factor = 1.0
       END
       PARALLEL ENVIRONMENT:
         Number of Processes = 1
         Start Method = Serial
       END
     END
   END
 END
 
 
 +--------------------------------------------------------------------+
 |                                                                    |
 |                  Interpolation of Initial Values                   |
 |                                                                    |
 +--------------------------------------------------------------------+
 
 


 +--------------------------------------------------------------------+
 |                                                                    |
 |                    ANSYS(R) CFX(R) Interpolator                    |
 |                                                                    |
 | Release 19.1                                                       |
 | Build 19.1 2018-04-17T13:27:50.069000                              |
 | Tue Apr 17 15:02:11 GMTDT 2018                                     |
 |                                                                    |
 |                        Executable Attributes                       |
 |                                                                    |
 |           single-64bit-int32-archfort-optimised-std-lcomp          |
 |                                                                    |
 | (C) 1996-2018 ANSYS, Inc.                                          |
 |                                                                    |
 | All rights reserved. Unauthorized use, distribution or duplication |
 | is prohibited. This product is subject to U.S. laws governing      |
 | export and re-export. For full Legal Notice, see documentation.    |
 +--------------------------------------------------------------------+




 +--------------------------------------------------------------------+
 |                  Job Information at Start of Run                   |
 +--------------------------------------------------------------------+

 Run mode:       serial run

 Host computer:  ENPC-LAB137 (PID:7464)

 Job started:    Wed Dec  5 14:00:05 2018


 +--------------------------------------------------------------------+
 |        Memory Allocated for Run  (Actual usage may be less)        |
 +--------------------------------------------------------------------+

           | Real       | Integer    | Character | Logical  | Double
 ----------+------------+------------+-----------+----------+----------
 Mwords    |       1.54 |       1.57 |      0.20 |     0.01 |     0.08
 Mbytes    |       5.88 |       6.00 |      0.19 |     0.04 |     0.63
 ----------+------------+------------+-----------+----------+----------


 +--------------------------------------------------------------------+
 |                  Host Memory Information (Mbytes)                  |
 +--------------------------------------------------------------------+
 |          Host           |     System     |   Allocated    |   %    |
 +-------------------------+----------------+----------------+--------+
 | ENPC-LAB137             |     16240.97   |        12.74   |   0.08 |
 +-------------------------+----------------+----------------+--------+

 ======================================================================
               Interpolating Onto Domain "Default Domain"
 ======================================================================

 Total Number of Nodes in the Target Domain              =        15627
 Bounding Box Volume of the Target Mesh                  =  9.60000E+01


 Checking all source domains from the source file:
   Target mesh is different from domain "Default Domain".

 Searching for Candidate Source Domains:
   Domain "Default Domain"
     Number of Mapped Nodes                     =        13777 ( 88.2%)
     Bounding Box Overlap Volume                =  9.60000E+01 (100.0%)
   Setting Up Unmapped Nodes:
     Number of Unmapped Nodes                   =         1850 ( 11.8%)

 Start interpolation of variables: 
   Source Domain Name                                    Mapped Nodes
   Default Domain                                        13777 ( 88.2%)

 +--------------------------------------------------------------------+
 |                     Variable Range Information                     |
 +--------------------------------------------------------------------+
 +--------------------------------------------------------------------+
 |      Variable Name                         |    min    |    max    |
 +--------------------------------------------------------------------+
 | Thermal Conductivity                       |  6.07E-01 |  6.07E-01 |
 | Courant Number                             |  1.20E+00 |  3.68E+01 |
 | Density                                    |  9.97E+02 |  9.97E+02 |
 | Static Enthalpy                            | -5.50E+04 |  7.05E+04 |
 | Static Entropy                             | -1.89E+02 |  2.30E+02 |
 | Pressure                                   | -9.54E+03 |  7.59E+04 |
 | Specific Heat Capacity at Constant Pressure|  4.18E+03 |  4.18E+03 |
 | Specific Heat Capacity at Constant Volume  |  4.18E+03 |  4.18E+03 |
 | Turbulence Eddy Dissipation                |  3.02E-04 |  2.60E+02 |
 | Turbulence Eddy Frequency                  |  6.67E+00 |  2.76E+03 |
 | Temperature                                |  2.85E+02 |  3.15E+02 |
 | Turbulence Kinetic Energy                  |  1.04E-04 |  4.60E+00 |
 | Velocity                                   |  3.12E-01 |  7.57E+00 |
 | Dynamic Viscosity                          |  8.90E-04 |  8.90E-04 |
 | Eddy Viscosity                             |  1.57E-03 |  3.31E+02 |
 +--------------------------------------------------------------------+

 +--------------------------------------------------------------------+
 |                 CPU Requirements of Interpolation                  |
 +--------------------------------------------------------------------+

 Interpolation Step              Time    Percentage
                                (secs.   %total)
 ----------------------------------------------------------------------
 Tree Setup                     3.82E-01   10.3 %
 Interpolation                  1.35E+00   36.4 %
 Unmatched Nodes                8.60E-02    2.3 %
 Miscellaneous                  1.89E+00   51.0 %
                                --------
 Total                          3.70E+00

 +--------------------------------------------------------------------+
 |                   Job Information at End of Run                    |
 +--------------------------------------------------------------------+

 Host computer:  ENPC-LAB137 (PID:7464)

 Job finished:   Wed Dec  5 14:00:09 2018

 Total wall clock time: 3.706E+00 seconds
             or: (          0:         0:         0:     3.706 )
                 (       Days:     Hours:   Minutes:   Seconds )

 
 +--------------------------------------------------------------------+
 |                                                                    |
 |                               Solver                               |
 |                                                                    |
 +--------------------------------------------------------------------+
 



 +--------------------------------------------------------------------+
 |                                                                    |
 |                       ANSYS(R) CFX(R) Solver                       |
 |                                                                    |
 | Release 19.1                                                       |
 | Build 19.1 2018-04-17T13:27:50.069000                              |
 | Tue Apr 17 15:02:11 GMTDT 2018                                     |
 |                                                                    |
 |                        Executable Attributes                       |
 |                                                                    |
 |           single-64bit-int32-archfort-optimised-std-lcomp          |
 |                                                                    |
 | (C) 1996-2018 ANSYS, Inc.                                          |
 |                                                                    |
 | All rights reserved. Unauthorized use, distribution or duplication |
 | is prohibited. This product is subject to U.S. laws governing      |
 | export and re-export. For full Legal Notice, see documentation.    |
 +--------------------------------------------------------------------+




 +--------------------------------------------------------------------+
 |                  Job Information at Start of Run                   |
 +--------------------------------------------------------------------+

 Run mode:       serial run

 Host computer:  ENPC-LAB137 (PID:1128)

 Job started:    Wed Dec  5 14:00:14 2018

 +--------------------------------------------------------------------+
 |                        License Information                         |
 +--------------------------------------------------------------------+
 
 License Cap:    ANSYS CFX Solver (Max 128K Nodes)
 License ID:     VIGO_campus_bath_ac_uk-SYSTEM-1456-462780


 +--------------------------------------------------------------------+
 |        Memory Allocated for Run  (Actual usage may be less)        |
 +--------------------------------------------------------------------+

           | Real       | Integer    | Character | Logical  | Double
 ----------+------------+------------+-----------+----------+----------
 Mwords    |      15.06 |       3.35 |      7.26 |     0.12 |     0.45
 Mbytes    |      57.43 |      12.79 |      6.93 |     0.46 |     3.44
 ----------+------------+------------+-----------+----------+----------


 +--------------------------------------------------------------------+
 |                  Host Memory Information (Mbytes)                  |
 +--------------------------------------------------------------------+
 |          Host           |     System     |   Allocated    |   %    |
 +-------------------------+----------------+----------------+--------+
 | ENPC-LAB137             |     16240.97   |        81.04   |   0.50 |
 +-------------------------+----------------+----------------+--------+


 +--------------------------------------------------------------------+
 |                     ****** Notice ******                           |
 | The Wall Heat Transfer Coefficient written to the results file for |
 | any turbulent phase with heat transfer is based on the turbulent   |
 | wall function coefficient. It is consistent with the Wall Heat Flux|
 | the wall temperature, and the Wall Adjacent Temperature            |
 | (near-wall temperature).  If you would like it to be based on a    |
 | user-specified bulk temperature instead, please set the expert     |
 | parameter "tbulk for htc = <value>".                               |
 +--------------------------------------------------------------------+

 +--------------------------------------------------------------------+
 |                      Topology Simplification                       |
 +--------------------------------------------------------------------+

 +--------------------------------------------------------------------+
 |                       ****** Warning ******                        |
 |                                                                    |
 | Topology simplification is activated with the following            |
 | restrictions:                                                      |
 |                                                                    |
 | - Mesh regions referenced only within User Fortran and NOT         |
 |   in the command file will cause the solver to stop.               |
 | - The solver will stop during any "Edit Run in Progress" step      |
 |   if new 2D regions are referenced.                                |
 +--------------------------------------------------------------------+

 +--------------------------------------------------------------------+
 |                          Mesh Statistics                           |
 +--------------------------------------------------------------------+
 | Domain Name          | Orthog. Angle | Exp. Factor  | Aspect Ratio |
 +----------------------+---------------+--------------+--------------+
 |                      | Minimum [deg] |   Maximum    |    Maximum   |
 +----------------------+---------------+--------------+--------------+
 | Default Domain       |       30.4 ok |        13 ok |        22 OK |
 +----------------------+---------------+--------------+--------------+
 |                      |  %!  %ok  %OK | %!  %ok  %OK | %!  %ok  %OK |
 +----------------------+---------------+--------------+--------------+
 | Default Domain       |   0    2   98 |  0    1   99 |  0    0  100 |
 +----------------------+---------------+--------------+--------------+

 Domain Name : Default Domain

     Total Number of Nodes                                =       15627

     Total Number of Elements                             =       49164
         Total Number of Tetrahedrons                     =       31179
         Total Number of Prisms                           =       17985

     Total Number of Faces                                =        4877

 +--------------------------------------------------------------------+
 |      Initial Conditions Supplied by Fields in the Input Files      |
 +--------------------------------------------------------------------+

 Domain Name : Default Domain
     Courant Number
     Eddy Viscosity
     Pressure
     Specific Heat Capacity at Constant Pressure
     Static Enthalpy
     Static Entropy
     Temperature
     Turbulence Eddy Dissipation
     Turbulence Eddy Frequency
     Turbulence Kinetic Energy
     Velocity

 +--------------------------------------------------------------------+
 |                     Average Scale Information                      |
 +--------------------------------------------------------------------+

 Domain Name : Default Domain
     Global Length                                         = 3.2195E+00
     Minimum Extent                                        = 4.0000E+00
     Maximum Extent                                        = 6.0000E+00
     Density                                               = 9.9700E+02
     Dynamic Viscosity                                     = 8.8990E-04
     Velocity                                              = 5.4630E+00
     Advection Time                                        = 5.8932E-01
     Reynolds Number                                       = 1.9705E+07
     Thermal Conductivity                                  = 6.0690E-01
     Specific Heat Capacity at Constant Pressure           = 4.1817E+03
     Prandtl Number                                        = 6.1316E+00
     Temperature Range                                     = 3.0007E+01

 +--------------------------------------------------------------------+
 |                Checking for Isolated Fluid Regions                 |
 +--------------------------------------------------------------------+
 
 No isolated fluid regions were found.

 +--------------------------------------------------------------------+
 |              The Equations Solved in This Calculation              |
 +--------------------------------------------------------------------+

 Subsystem : Momentum and Mass

   U-Mom
   V-Mom
   W-Mom
   P-Mass

 Subsystem : Heat Transfer

   H-Energy

 Subsystem : TurbKE and Diss.K

   K-TurbKE
   E-Diss.K
                   
 CFD Solver started: Wed Dec  5 14:00:18 2018


 +--------------------------------------------------------------------+
 |                       Convergence History                          |
 +--------------------------------------------------------------------+

 ======================================================================
 |                        Timescale Information                       |
 ----------------------------------------------------------------------
 |       Equation       |         Type          |      Timescale      |
 +----------------------+-----------------------+---------------------+
 | U-Mom                | Auto Timescale        |     1.85133E-01     |
 | V-Mom                | Auto Timescale        |     1.85133E-01     |
 | W-Mom                | Auto Timescale        |     1.85133E-01     |
 +----------------------+-----------------------+---------------------+
 | H-Energy             | Auto Timescale        |     1.85133E-01     |
 +----------------------+-----------------------+---------------------+
 | K-TurbKE             | Auto Timescale        |     1.85133E-01     |
 | E-Diss.K             | Auto Timescale        |     1.85133E-01     |
 +----------------------+-----------------------+---------------------+

 ======================================================================
 OUTER LOOP ITERATION =  218 (    1) CPU SECONDS = 1.497E+02 (3.476E+00)
 ----------------------------------------------------------------------
 |       Equation       | Rate | RMS Res | Max Res |  Linear Solution |
 +----------------------+------+---------+---------+------------------+
 | U-Mom                | 0.00 | 4.0E-03 | 5.0E-02 |       8.8E-02  OK|
 | V-Mom                | 0.00 | 4.0E-03 | 7.5E-02 |       7.9E-02  OK|
 | W-Mom                | 0.00 | 2.3E-03 | 3.0E-02 |       6.7E-02  OK|
 | P-Mass               | 0.00 | 2.1E-03 | 2.8E-02 |  5.3  9.1E-02  OK|
 +----------------------+------+---------+---------+------------------+
 | H-Energy             | 0.00 | 6.6E-03 | 8.8E-02 |  5.5  2.0E-02  OK|
 +----------------------+------+---------+---------+------------------+
 | K-TurbKE             | 0.00 | 7.6E-03 | 6.2E-02 |  5.5  2.7E-02  OK|
 | E-Diss.K             | 0.00 | 4.7E-02 | 9.4E-01 |  7.5  3.5E-03  OK|
 +----------------------+------+---------+---------+------------------+

 ======================================================================
 OUTER LOOP ITERATION =  219 (    2) CPU SECONDS = 1.503E+02 (4.070E+00)
 ----------------------------------------------------------------------
 |       Equation       | Rate | RMS Res | Max Res |  Linear Solution |
 +----------------------+------+---------+---------+------------------+
 | U-Mom                | 0.52 | 2.1E-03 | 1.7E-02 |       5.9E-02  OK|
 | V-Mom                | 0.51 | 2.1E-03 | 2.3E-02 |       5.5E-02  OK|
 | W-Mom                | 0.50 | 1.1E-03 | 1.3E-02 |       9.1E-02  OK|
 | P-Mass               | 0.33 | 6.7E-04 | 9.9E-03 |  9.6  4.2E-02  OK|
 +----------------------+------+---------+---------+------------------+
 | H-Energy             | 0.23 | 1.5E-03 | 2.3E-02 |  5.5  4.0E-02  OK|
 +----------------------+------+---------+---------+------------------+
 | K-TurbKE             | 4.48 | 3.4E-02 | 2.7E-01 |  5.4  1.1E-02  OK|
 | E-Diss.K             | 1.92 | 9.1E-02 | 1.8E+00 |  7.6  9.7E-04  OK|
 +----------------------+------+---------+---------+------------------+

 ======================================================================
 OUTER LOOP ITERATION =  220 (    3) CPU SECONDS = 1.508E+02 (4.604E+00)
 ----------------------------------------------------------------------
 |       Equation       | Rate | RMS Res | Max Res |  Linear Solution |
 +----------------------+------+---------+---------+------------------+
 | U-Mom                | 0.64 | 1.3E-03 | 1.7E-02 |       6.3E-02  OK|
 | V-Mom                | 0.55 | 1.1E-03 | 8.2E-03 |       6.0E-02  OK|
 | W-Mom                | 0.54 | 6.2E-04 | 6.4E-03 |       1.3E-01  ok|
 | P-Mass               | 0.55 | 3.7E-04 | 5.5E-03 |  9.6  4.4E-02  OK|
 +----------------------+------+---------+---------+------------------+
 | H-Energy             | 0.75 | 1.1E-03 | 1.8E-02 |  5.5  3.1E-02  OK|
 +----------------------+------+---------+---------+------------------+
 | K-TurbKE             | 0.36 | 1.2E-02 | 1.2E-01 |  5.5  2.4E-02  OK|
 | E-Diss.K             | 0.41 | 3.7E-02 | 6.7E-01 |  7.6  4.3E-03  OK|
 +----------------------+------+---------+---------+------------------+

 ======================================================================
 |                        Timescale Information                       |
 ----------------------------------------------------------------------
 |       Equation       |         Type          |      Timescale      |
 +----------------------+-----------------------+---------------------+
 | U-Mom                | Auto Timescale        |     1.95815E-01     |
 | V-Mom                | Auto Timescale        |     1.95815E-01     |
 | W-Mom                | Auto Timescale        |     1.95815E-01     |
 +----------------------+-----------------------+---------------------+
 | H-Energy             | Auto Timescale        |     1.95815E-01     |
 +----------------------+-----------------------+---------------------+
 | K-TurbKE             | Auto Timescale        |     1.95815E-01     |
 | E-Diss.K             | Auto Timescale        |     1.95815E-01     |
 +----------------------+-----------------------+---------------------+

 ======================================================================
 OUTER LOOP ITERATION =  221 (    4) CPU SECONDS = 1.514E+02 (5.141E+00)
 ----------------------------------------------------------------------
 |       Equation       | Rate | RMS Res | Max Res |  Linear Solution |
 +----------------------+------+---------+---------+------------------+
 | U-Mom                | 0.64 | 8.6E-04 | 1.2E-02 |       5.6E-02  OK|
 | V-Mom                | 0.61 | 7.0E-04 | 6.5E-03 |       5.5E-02  OK|
 | W-Mom                | 0.81 | 5.0E-04 | 5.6E-03 |       8.4E-02  OK|
 | P-Mass               | 0.60 | 2.2E-04 | 3.0E-03 |  9.6  4.7E-02  OK|
 +----------------------+------+---------+---------+------------------+
 | H-Energy             | 0.95 | 1.1E-03 | 1.3E-02 |  5.5  3.6E-02  OK|
 +----------------------+------+---------+---------+------------------+
 | K-TurbKE             | 0.83 | 1.0E-02 | 9.9E-02 |  5.5  2.9E-02  OK|
 | E-Diss.K             | 0.15 | 5.6E-03 | 2.8E-01 |  7.6  6.5E-03  OK|
 +----------------------+------+---------+---------+------------------+

 ======================================================================
 OUTER LOOP ITERATION =  222 (    5) CPU SECONDS = 1.519E+02 (5.690E+00)
 ----------------------------------------------------------------------
 |       Equation       | Rate | RMS Res | Max Res |  Linear Solution |
 +----------------------+------+---------+---------+------------------+
 | U-Mom                | 0.75 | 6.5E-04 | 8.9E-03 |       4.7E-02  OK|
 | V-Mom                | 0.83 | 5.8E-04 | 7.6E-03 |       4.7E-02  OK|
 | W-Mom                | 0.73 | 3.6E-04 | 4.3E-03 |       1.0E-01  ok|
 | P-Mass               | 0.64 | 1.4E-04 | 2.1E-03 |  9.6  4.8E-02  OK|
 +----------------------+------+---------+---------+------------------+
 | H-Energy             | 0.93 | 1.0E-03 | 9.1E-03 |  5.5  3.9E-02  OK|
 +----------------------+------+---------+---------+------------------+
 | K-TurbKE             | 0.37 | 3.8E-03 | 4.4E-02 |  5.5  3.1E-02  OK|
 | E-Diss.K             | 0.63 | 3.5E-03 | 6.0E-02 |  7.6  7.4E-03  OK|
 +----------------------+------+---------+---------+------------------+

 ======================================================================
 OUTER LOOP ITERATION =  223 (    6) CPU SECONDS = 1.525E+02 (6.233E+00)
 ----------------------------------------------------------------------
 |       Equation       | Rate | RMS Res | Max Res |  Linear Solution |
 +----------------------+------+---------+---------+------------------+
 | U-Mom                | 0.73 | 4.7E-04 | 6.9E-03 |       3.1E-02  OK|
 | V-Mom                | 0.80 | 4.7E-04 | 7.7E-03 |       3.2E-02  OK|
 | W-Mom                | 0.77 | 2.8E-04 | 4.3E-03 |       6.7E-02  OK|
 | P-Mass               | 0.60 | 8.5E-05 | 1.5E-03 |  9.6  4.4E-02  OK|
 +----------------------+------+---------+---------+------------------+
 | H-Energy             | 0.91 | 9.2E-04 | 7.4E-03 |  5.5  3.9E-02  OK|
 +----------------------+------+---------+---------+------------------+
 | K-TurbKE             | 0.61 | 2.3E-03 | 1.9E-02 |  5.5  2.0E-02  OK|
 | E-Diss.K             | 2.49 | 8.8E-03 | 1.6E-01 |  7.6  3.4E-03  OK|
 +----------------------+------+---------+---------+------------------+

 ======================================================================
 OUTER LOOP ITERATION =  224 (    7) CPU SECONDS = 1.530E+02 (6.763E+00)
 ----------------------------------------------------------------------
 |       Equation       | Rate | RMS Res | Max Res |  Linear Solution |
 +----------------------+------+---------+---------+------------------+
 | U-Mom                | 0.79 | 3.7E-04 | 5.3E-03 |       4.1E-02  OK|
 | V-Mom                | 0.88 | 4.1E-04 | 7.2E-03 |       3.7E-02  OK|
 | W-Mom                | 0.84 | 2.4E-04 | 4.0E-03 |       4.4E-02  OK|
 | P-Mass               | 0.70 | 5.9E-05 | 6.9E-04 |  9.6  4.3E-02  OK|
 +----------------------+------+---------+---------+------------------+
 | H-Energy             | 0.91 | 8.4E-04 | 7.2E-03 |  5.5  3.8E-02  OK|
 +----------------------+------+---------+---------+------------------+
 | K-TurbKE             | 0.52 | 1.2E-03 | 1.3E-02 |  5.5  2.5E-02  OK|
 | E-Diss.K             | 0.20 | 1.7E-03 | 4.9E-02 |  7.6  5.4E-03  OK|
 +----------------------+------+---------+---------+------------------+

 ======================================================================
 OUTER LOOP ITERATION =  225 (    8) CPU SECONDS = 1.535E+02 (7.313E+00)
 ----------------------------------------------------------------------
 |       Equation       | Rate | RMS Res | Max Res |  Linear Solution |
 +----------------------+------+---------+---------+------------------+
 | U-Mom                | 0.82 | 3.1E-04 | 4.0E-03 |       5.2E-02  OK|
 | V-Mom                | 0.90 | 3.7E-04 | 6.4E-03 |       4.5E-02  OK|
 | W-Mom                | 0.90 | 2.1E-04 | 3.5E-03 |       5.6E-02  OK|
 | P-Mass               | 0.96 | 5.7E-05 | 7.1E-04 |  9.6  5.7E-02  OK|
 +----------------------+------+---------+---------+------------------+
 | H-Energy             | 0.89 | 7.4E-04 | 5.7E-03 |  5.5  3.7E-02  OK|
 +----------------------+------+---------+---------+------------------+
 | K-TurbKE             | 0.76 | 9.2E-04 | 9.4E-03 |  5.5  3.1E-02  OK|
 | E-Diss.K             | 0.99 | 1.7E-03 | 4.4E-02 |  7.6  5.4E-03  OK|
 +----------------------+------+---------+---------+------------------+

 ======================================================================
 |                        Timescale Information                       |
 ----------------------------------------------------------------------
 |       Equation       |         Type          |      Timescale      |
 +----------------------+-----------------------+---------------------+
 | U-Mom                | Auto Timescale        |     1.98724E-01     |
 | V-Mom                | Auto Timescale        |     1.98724E-01     |
 | W-Mom                | Auto Timescale        |     1.98724E-01     |
 +----------------------+-----------------------+---------------------+
 | H-Energy             | Auto Timescale        |     1.98724E-01     |
 +----------------------+-----------------------+---------------------+
 | K-TurbKE             | Auto Timescale        |     1.98724E-01     |
 | E-Diss.K             | Auto Timescale        |     1.98724E-01     |
 +----------------------+-----------------------+---------------------+

 ======================================================================
 OUTER LOOP ITERATION =  226 (    9) CPU SECONDS = 1.541E+02 (7.851E+00)
 ----------------------------------------------------------------------
 |       Equation       | Rate | RMS Res | Max Res |  Linear Solution |
 +----------------------+------+---------+---------+------------------+
 | U-Mom                | 0.85 | 2.6E-04 | 3.0E-03 |       5.8E-02  OK|
 | V-Mom                | 0.90 | 3.3E-04 | 5.5E-03 |       5.1E-02  OK|
 | W-Mom                | 0.92 | 1.9E-04 | 3.2E-03 |       7.5E-02  OK|
 | P-Mass               | 1.01 | 5.8E-05 | 6.1E-04 |  9.6  7.5E-02  OK|
 +----------------------+------+---------+---------+------------------+
 | H-Energy             | 0.89 | 6.6E-04 | 5.6E-03 |  5.5  3.7E-02  OK|
 +----------------------+------+---------+---------+------------------+
 | K-TurbKE             | 0.66 | 6.1E-04 | 7.1E-03 |  5.5  3.8E-02  OK|
 | E-Diss.K             | 0.29 | 4.9E-04 | 1.4E-02 |  7.6  9.2E-03  OK|
 +----------------------+------+---------+---------+------------------+

 ======================================================================
 OUTER LOOP ITERATION =  227 (   10) CPU SECONDS = 1.546E+02 (8.419E+00)
 ----------------------------------------------------------------------
 |       Equation       | Rate | RMS Res | Max Res |  Linear Solution |
 +----------------------+------+---------+---------+------------------+
 | U-Mom                | 0.88 | 2.3E-04 | 3.2E-03 |       6.3E-02  OK|
 | V-Mom                | 0.91 | 3.0E-04 | 4.7E-03 |       5.5E-02  OK|
 | W-Mom                | 0.93 | 1.8E-04 | 3.1E-03 |       9.3E-02  OK|
 | P-Mass               | 0.97 | 5.6E-05 | 6.0E-04 |  9.6  8.8E-02  OK|
 +----------------------+------+---------+---------+------------------+
 | H-Energy             | 0.90 | 5.9E-04 | 6.2E-03 |  5.5  3.6E-02  OK|
 +----------------------+------+---------+---------+------------------+
 | K-TurbKE             | 0.85 | 5.2E-04 | 6.8E-03 |  5.5  4.3E-02  OK|
 | E-Diss.K             | 1.40 | 6.9E-04 | 2.0E-02 |  7.6  1.0E-02  OK|
 +----------------------+------+---------+---------+------------------+

 ======================================================================
 OUTER LOOP ITERATION =  228 (   11) CPU SECONDS = 1.552E+02 (8.959E+00)
 ----------------------------------------------------------------------
 |       Equation       | Rate | RMS Res | Max Res |  Linear Solution |
 +----------------------+------+---------+---------+------------------+
 | U-Mom                | 0.91 | 2.1E-04 | 3.6E-03 |       6.6E-02  OK|
 | V-Mom                | 0.92 | 2.8E-04 | 4.6E-03 |       5.7E-02  OK|
 | W-Mom                | 0.93 | 1.7E-04 | 3.1E-03 |       1.1E-01  ok|
 | P-Mass               | 0.98 | 5.5E-05 | 6.0E-04 |  9.6  9.6E-02  OK|
 +----------------------+------+---------+---------+------------------+
 | H-Energy             | 0.90 | 5.4E-04 | 6.4E-03 |  5.5  3.6E-02  OK|
 +----------------------+------+---------+---------+------------------+
 | K-TurbKE             | 0.92 | 4.7E-04 | 5.6E-03 |  5.5  4.2E-02  OK|
 | E-Diss.K             | 1.45 | 9.9E-04 | 2.4E-02 |  7.6  7.8E-03  OK|
 +----------------------+------+---------+---------+------------------+

 ======================================================================
 OUTER LOOP ITERATION =  229 (   12) CPU SECONDS = 1.557E+02 (9.501E+00)
 ----------------------------------------------------------------------
 |       Equation       | Rate | RMS Res | Max Res |  Linear Solution |
 +----------------------+------+---------+---------+------------------+
 | U-Mom                | 0.93 | 1.9E-04 | 3.9E-03 |       2.2E-02  OK|
 | V-Mom                | 0.92 | 2.6E-04 | 4.6E-03 |       1.9E-02  OK|
 | W-Mom                | 0.93 | 1.6E-04 | 3.0E-03 |       5.5E-02  OK|
 | P-Mass               | 0.95 | 5.2E-05 | 5.6E-04 | 13.8  3.5E-02  OK|
 +----------------------+------+---------+---------+------------------+
 | H-Energy             | 0.92 | 4.9E-04 | 6.4E-03 |  5.5  3.4E-02  OK|
 +----------------------+------+---------+---------+------------------+
 | K-TurbKE             | 0.94 | 4.5E-04 | 4.8E-03 |  5.5  3.9E-02  OK|
 | E-Diss.K             | 0.97 | 9.7E-04 | 2.2E-02 |  7.6  8.2E-03  OK|
 +----------------------+------+---------+---------+------------------+

 ======================================================================
 OUTER LOOP ITERATION =  230 (   13) CPU SECONDS = 1.563E+02 (1.006E+01)
 ----------------------------------------------------------------------
 |       Equation       | Rate | RMS Res | Max Res |  Linear Solution |
 +----------------------+------+---------+---------+------------------+
 | U-Mom                | 0.94 | 1.8E-04 | 4.1E-03 |       6.4E-02  OK|
 | V-Mom                | 0.92 | 2.4E-04 | 4.6E-03 |       5.7E-02  OK|
 | W-Mom                | 0.93 | 1.4E-04 | 2.8E-03 |       1.1E-01  ok|
 | P-Mass               | 0.97 | 5.1E-05 | 5.4E-04 |  9.6  1.0E-01  OK|
 +----------------------+------+---------+---------+------------------+
 | H-Energy             | 0.90 | 4.4E-04 | 6.3E-03 |  5.5  3.3E-02  OK|
 +----------------------+------+---------+---------+------------------+
 | K-TurbKE             | 0.96 | 4.3E-04 | 4.3E-03 |  5.5  3.8E-02  OK|
 | E-Diss.K             | 0.88 | 8.5E-04 | 1.9E-02 |  7.6  9.6E-03  OK|
 +----------------------+------+---------+---------+------------------+

 ======================================================================
 |                        Timescale Information                       |
 ----------------------------------------------------------------------
 |       Equation       |         Type          |      Timescale      |
 +----------------------+-----------------------+---------------------+
 | U-Mom                | Auto Timescale        |     1.96653E-01     |
 | V-Mom                | Auto Timescale        |     1.96653E-01     |
 | W-Mom                | Auto Timescale        |     1.96653E-01     |
 +----------------------+-----------------------+---------------------+
 | H-Energy             | Auto Timescale        |     1.96653E-01     |
 +----------------------+-----------------------+---------------------+
 | K-TurbKE             | Auto Timescale        |     1.96653E-01     |
 | E-Diss.K             | Auto Timescale        |     1.96653E-01     |
 +----------------------+-----------------------+---------------------+

 ======================================================================
 OUTER LOOP ITERATION =  231 (   14) CPU SECONDS = 1.568E+02 (1.059E+01)
 ----------------------------------------------------------------------
 |       Equation       | Rate | RMS Res | Max Res |  Linear Solution |
 +----------------------+------+---------+---------+------------------+
 | U-Mom                | 0.95 | 1.7E-04 | 4.3E-03 |       2.1E-02  OK|
 | V-Mom                | 0.93 | 2.2E-04 | 4.6E-03 |       1.9E-02  OK|
 | W-Mom                | 0.91 | 1.3E-04 | 2.5E-03 |       6.4E-02  OK|
 | P-Mass               | 0.89 | 4.5E-05 | 4.5E-04 | 13.8  3.5E-02  OK|
 +----------------------+------+---------+---------+------------------+
 | H-Energy             | 0.91 | 4.0E-04 | 5.7E-03 |  5.5  3.2E-02  OK|
 +----------------------+------+---------+---------+------------------+
 | K-TurbKE             | 1.00 | 4.3E-04 | 3.2E-03 |  5.5  3.6E-02  OK|
 | E-Diss.K             | 0.99 | 8.4E-04 | 1.8E-02 |  7.6  9.5E-03  OK|
 +----------------------+------+---------+---------+------------------+

 ======================================================================
 OUTER LOOP ITERATION =  232 (   15) CPU SECONDS = 1.574E+02 (1.114E+01)
 ----------------------------------------------------------------------
 |       Equation       | Rate | RMS Res | Max Res |  Linear Solution |
 +----------------------+------+---------+---------+------------------+
 | U-Mom                | 0.95 | 1.7E-04 | 4.3E-03 |       2.0E-02  OK|
 | V-Mom                | 0.93 | 2.0E-04 | 4.5E-03 |       1.8E-02  OK|
 | W-Mom                | 0.91 | 1.2E-04 | 2.3E-03 |       5.9E-02  OK|
 | P-Mass               | 0.97 | 4.4E-05 | 4.3E-04 | 13.8  3.2E-02  OK|
 +----------------------+------+---------+---------+------------------+
 | H-Energy             | 0.91 | 3.6E-04 | 5.4E-03 |  5.5  3.2E-02  OK|
 +----------------------+------+---------+---------+------------------+
 | K-TurbKE             | 1.00 | 4.3E-04 | 2.3E-03 |  5.5  3.5E-02  OK|
 | E-Diss.K             | 0.93 | 7.8E-04 | 1.6E-02 |  7.6  1.0E-02  OK|
 +----------------------+------+---------+---------+------------------+

 ======================================================================
 OUTER LOOP ITERATION =  233 (   16) CPU SECONDS = 1.579E+02 (1.168E+01)
 ----------------------------------------------------------------------
 |       Equation       | Rate | RMS Res | Max Res |  Linear Solution |
 +----------------------+------+---------+---------+------------------+
 | U-Mom                | 0.96 | 1.6E-04 | 4.4E-03 |       2.0E-02  OK|
 | V-Mom                | 0.94 | 1.9E-04 | 4.5E-03 |       1.9E-02  OK|
 | W-Mom                | 0.91 | 1.1E-04 | 2.1E-03 |       6.5E-02  OK|
 | P-Mass               | 0.93 | 4.0E-05 | 3.7E-04 | 13.8  3.3E-02  OK|
 +----------------------+------+---------+---------+------------------+
 | H-Energy             | 0.91 | 3.3E-04 | 4.1E-03 |  5.5  3.2E-02  OK|
 +----------------------+------+---------+---------+------------------+
 | K-TurbKE             | 1.00 | 4.3E-04 | 2.0E-03 |  5.5  3.4E-02  OK|
 | E-Diss.K             | 0.92 | 7.2E-04 | 1.5E-02 |  7.6  1.1E-02  OK|
 +----------------------+------+---------+---------+------------------+

 ======================================================================
 OUTER LOOP ITERATION =  234 (   17) CPU SECONDS = 1.585E+02 (1.224E+01)
 ----------------------------------------------------------------------
 |       Equation       | Rate | RMS Res | Max Res |  Linear Solution |
 +----------------------+------+---------+---------+------------------+
 | U-Mom                | 0.96 | 1.5E-04 | 4.5E-03 |       2.0E-02  OK|
 | V-Mom                | 0.94 | 1.8E-04 | 4.4E-03 |       1.9E-02  OK|
 | W-Mom                | 0.90 | 9.8E-05 | 2.1E-03 |       7.0E-02  OK|
 | P-Mass               | 0.94 | 3.8E-05 | 3.3E-04 | 13.8  3.3E-02  OK|
 +----------------------+------+---------+---------+------------------+
 | H-Energy             | 0.91 | 3.0E-04 | 4.0E-03 |  5.5  3.3E-02  OK|
 +----------------------+------+---------+---------+------------------+
 | K-TurbKE             | 1.00 | 4.3E-04 | 2.0E-03 |  5.5  3.4E-02  OK|
 | E-Diss.K             | 0.93 | 6.8E-04 | 1.3E-02 |  7.6  1.1E-02  OK|
 +----------------------+------+---------+---------+------------------+

 ======================================================================
 OUTER LOOP ITERATION =  235 (   18) CPU SECONDS = 1.590E+02 (1.278E+01)
 ----------------------------------------------------------------------
 |       Equation       | Rate | RMS Res | Max Res |  Linear Solution |
 +----------------------+------+---------+---------+------------------+
 | U-Mom                | 0.96 | 1.5E-04 | 4.8E-03 |       2.1E-02  OK|
 | V-Mom                | 0.94 | 1.7E-04 | 4.4E-03 |       2.0E-02  OK|
 | W-Mom                | 0.91 | 8.9E-05 | 2.0E-03 |       7.5E-02  OK|
 | P-Mass               | 0.95 | 3.6E-05 | 2.9E-04 | 13.8  3.3E-02  OK|
 +----------------------+------+---------+---------+------------------+
 | H-Energy             | 0.91 | 2.8E-04 | 3.3E-03 |  5.5  3.5E-02  OK|
 +----------------------+------+---------+---------+------------------+
 | K-TurbKE             | 1.00 | 4.2E-04 | 2.0E-03 |  5.5  3.4E-02  OK|
 | E-Diss.K             | 0.94 | 6.4E-04 | 1.2E-02 |  7.6  1.1E-02  OK|
 +----------------------+------+---------+---------+------------------+

 ======================================================================
 |                        Timescale Information                       |
 ----------------------------------------------------------------------
 |       Equation       |         Type          |      Timescale      |
 +----------------------+-----------------------+---------------------+
 | U-Mom                | Auto Timescale        |     1.93739E-01     |
 | V-Mom                | Auto Timescale        |     1.93739E-01     |
 | W-Mom                | Auto Timescale        |     1.93739E-01     |
 +----------------------+-----------------------+---------------------+
 | H-Energy             | Auto Timescale        |     1.93739E-01     |
 +----------------------+-----------------------+---------------------+
 | K-TurbKE             | Auto Timescale        |     1.93739E-01     |
 | E-Diss.K             | Auto Timescale        |     1.93739E-01     |
 +----------------------+-----------------------+---------------------+

 ======================================================================
 OUTER LOOP ITERATION =  236 (   19) CPU SECONDS = 1.596E+02 (1.334E+01)
 ----------------------------------------------------------------------
 |       Equation       | Rate | RMS Res | Max Res |  Linear Solution |
 +----------------------+------+---------+---------+------------------+
 | U-Mom                | 0.96 | 1.4E-04 | 4.9E-03 |       2.1E-02  OK|
 | V-Mom                | 0.94 | 1.6E-04 | 4.2E-03 |       2.0E-02  OK|
 | W-Mom                | 0.91 | 8.1E-05 | 1.9E-03 |       7.7E-02  OK|
 | P-Mass               | 0.95 | 3.4E-05 | 2.6E-04 | 13.8  3.3E-02  OK|
 +----------------------+------+---------+---------+------------------+
 | H-Energy             | 0.92 | 2.5E-04 | 2.8E-03 |  5.5  3.6E-02  OK|
 +----------------------+------+---------+---------+------------------+
 | K-TurbKE             | 0.99 | 4.2E-04 | 2.0E-03 |  5.5  3.3E-02  OK|
 | E-Diss.K             | 0.94 | 6.0E-04 | 1.1E-02 |  7.6  1.2E-02  OK|
 +----------------------+------+---------+---------+------------------+

 ======================================================================
 OUTER LOOP ITERATION =  237 (   20) CPU SECONDS = 1.601E+02 (1.388E+01)
 ----------------------------------------------------------------------
 |       Equation       | Rate | RMS Res | Max Res |  Linear Solution |
 +----------------------+------+---------+---------+------------------+
 | U-Mom                | 0.96 | 1.4E-04 | 4.8E-03 |       2.1E-02  OK|
 | V-Mom                | 0.94 | 1.5E-04 | 4.0E-03 |       2.1E-02  OK|
 | W-Mom                | 0.92 | 7.4E-05 | 1.7E-03 |       8.0E-02  OK|
 | P-Mass               | 0.95 | 3.2E-05 | 2.4E-04 | 13.8  3.4E-02  OK|
 +----------------------+------+---------+---------+------------------+
 | H-Energy             | 0.93 | 2.3E-04 | 2.7E-03 |  5.5  3.8E-02  OK|
 +----------------------+------+---------+---------+------------------+
 | K-TurbKE             | 0.99 | 4.1E-04 | 2.0E-03 |  5.5  3.3E-02  OK|
 | E-Diss.K             | 0.95 | 5.7E-04 | 1.0E-02 |  7.6  1.2E-02  OK|
 +----------------------+------+---------+---------+------------------+

 ======================================================================
 OUTER LOOP ITERATION =  238 (   21) CPU SECONDS = 1.607E+02 (1.443E+01)
 ----------------------------------------------------------------------
 |       Equation       | Rate | RMS Res | Max Res |  Linear Solution |
 +----------------------+------+---------+---------+------------------+
 | U-Mom                | 0.96 | 1.3E-04 | 4.5E-03 |       2.2E-02  OK|
 | V-Mom                | 0.95 | 1.4E-04 | 3.8E-03 |       2.1E-02  OK|
 | W-Mom                | 0.92 | 6.9E-05 | 1.6E-03 |       8.2E-02  OK|
 | P-Mass               | 0.95 | 3.1E-05 | 2.1E-04 | 13.8  3.4E-02  OK|
 +----------------------+------+---------+---------+------------------+
 | H-Energy             | 0.92 | 2.2E-04 | 2.9E-03 |  5.5  4.1E-02  OK|
 +----------------------+------+---------+---------+------------------+
 | K-TurbKE             | 0.98 | 4.1E-04 | 1.9E-03 |  5.5  3.3E-02  OK|
 | E-Diss.K             | 0.95 | 5.4E-04 | 9.4E-03 |  7.6  1.2E-02  OK|
 +----------------------+------+---------+---------+------------------+

 ======================================================================
 OUTER LOOP ITERATION =  239 (   22) CPU SECONDS = 1.612E+02 (1.497E+01)
 ----------------------------------------------------------------------
 |       Equation       | Rate | RMS Res | Max Res |  Linear Solution |
 +----------------------+------+---------+---------+------------------+
 | U-Mom                | 0.97 | 1.3E-04 | 4.2E-03 |       2.2E-02  OK|
 | V-Mom                | 0.95 | 1.3E-04 | 3.5E-03 |       2.2E-02  OK|
 | W-Mom                | 0.93 | 6.4E-05 | 1.5E-03 |       8.4E-02  OK|
 | P-Mass               | 0.95 | 2.9E-05 | 2.0E-04 | 13.8  3.5E-02  OK|
 +----------------------+------+---------+---------+------------------+
 | H-Energy             | 0.91 | 2.0E-04 | 2.3E-03 |  5.5  4.3E-02  OK|
 +----------------------+------+---------+---------+------------------+
 | K-TurbKE             | 0.98 | 4.0E-04 | 1.9E-03 |  5.5  3.3E-02  OK|
 | E-Diss.K             | 0.95 | 5.2E-04 | 8.8E-03 |  7.6  1.2E-02  OK|
 +----------------------+------+---------+---------+------------------+

 ======================================================================
 OUTER LOOP ITERATION =  240 (   23) CPU SECONDS = 1.617E+02 (1.552E+01)
 ----------------------------------------------------------------------
 |       Equation       | Rate | RMS Res | Max Res |  Linear Solution |
 +----------------------+------+---------+---------+------------------+
 | U-Mom                | 0.97 | 1.2E-04 | 3.9E-03 |       2.2E-02  OK|
 | V-Mom                | 0.96 | 1.3E-04 | 3.2E-03 |       2.2E-02  OK|
 | W-Mom                | 0.95 | 6.1E-05 | 1.4E-03 |       8.4E-02  OK|
 | P-Mass               | 0.95 | 2.8E-05 | 1.9E-04 | 13.8  3.5E-02  OK|
 +----------------------+------+---------+---------+------------------+
 | H-Energy             | 0.92 | 1.8E-04 | 2.0E-03 |  5.5  4.5E-02  OK|
 +----------------------+------+---------+---------+------------------+
 | K-TurbKE             | 0.97 | 3.9E-04 | 1.8E-03 |  5.5  3.3E-02  OK|
 | E-Diss.K             | 0.95 | 4.9E-04 | 8.2E-03 |  7.6  1.2E-02  OK|
 +----------------------+------+---------+---------+------------------+

 ======================================================================
 |                        Timescale Information                       |
 ----------------------------------------------------------------------
 |       Equation       |         Type          |      Timescale      |
 +----------------------+-----------------------+---------------------+
 | U-Mom                | Auto Timescale        |     1.90817E-01     |
 | V-Mom                | Auto Timescale        |     1.90817E-01     |
 | W-Mom                | Auto Timescale        |     1.90817E-01     |
 +----------------------+-----------------------+---------------------+
 | H-Energy             | Auto Timescale        |     1.90817E-01     |
 +----------------------+-----------------------+---------------------+
 | K-TurbKE             | Auto Timescale        |     1.90817E-01     |
 | E-Diss.K             | Auto Timescale        |     1.90817E-01     |
 +----------------------+-----------------------+---------------------+

 ======================================================================
 OUTER LOOP ITERATION =  241 (   24) CPU SECONDS = 1.623E+02 (1.607E+01)
 ----------------------------------------------------------------------
 |       Equation       | Rate | RMS Res | Max Res |  Linear Solution |
 +----------------------+------+---------+---------+------------------+
 | U-Mom                | 0.96 | 1.2E-04 | 3.6E-03 |       2.2E-02  OK|
 | V-Mom                | 0.96 | 1.2E-04 | 3.0E-03 |       2.2E-02  OK|
 | W-Mom                | 0.96 | 5.8E-05 | 1.3E-03 |       8.2E-02  OK|
 | P-Mass               | 0.96 | 2.7E-05 | 1.8E-04 | 13.8  3.5E-02  OK|
 +----------------------+------+---------+---------+------------------+
 | H-Energy             | 0.92 | 1.6E-04 | 1.8E-03 |  5.5  4.5E-02  OK|
 +----------------------+------+---------+---------+------------------+
 | K-TurbKE             | 0.97 | 3.8E-04 | 1.8E-03 |  5.5  3.3E-02  OK|
 | E-Diss.K             | 0.94 | 4.6E-04 | 7.6E-03 |  7.6  1.2E-02  OK|
 +----------------------+------+---------+---------+------------------+

 ======================================================================
 OUTER LOOP ITERATION =  242 (   25) CPU SECONDS = 1.628E+02 (1.662E+01)
 ----------------------------------------------------------------------
 |       Equation       | Rate | RMS Res | Max Res |  Linear Solution |
 +----------------------+------+---------+---------+------------------+
 | U-Mom                | 0.96 | 1.1E-04 | 3.3E-03 |       2.2E-02  OK|
 | V-Mom                | 0.96 | 1.2E-04 | 2.7E-03 |       2.3E-02  OK|
 | W-Mom                | 0.96 | 5.6E-05 | 1.2E-03 |       8.2E-02  OK|
 | P-Mass               | 0.95 | 2.5E-05 | 1.9E-04 | 13.8  3.6E-02  OK|
 +----------------------+------+---------+---------+------------------+
 | H-Energy             | 0.92 | 1.5E-04 | 1.4E-03 |  5.5  4.6E-02  OK|
 +----------------------+------+---------+---------+------------------+
 | K-TurbKE             | 0.97 | 3.6E-04 | 1.8E-03 |  5.5  3.3E-02  OK|
 | E-Diss.K             | 0.95 | 4.4E-04 | 7.1E-03 |  7.6  1.2E-02  OK|
 +----------------------+------+---------+---------+------------------+

 ======================================================================
 OUTER LOOP ITERATION =  243 (   26) CPU SECONDS = 1.634E+02 (1.717E+01)
 ----------------------------------------------------------------------
 |       Equation       | Rate | RMS Res | Max Res |  Linear Solution |
 +----------------------+------+---------+---------+------------------+
 | U-Mom                | 0.96 | 1.1E-04 | 3.0E-03 |       2.3E-02  OK|
 | V-Mom                | 0.96 | 1.1E-04 | 2.5E-03 |       2.3E-02  OK|
 | W-Mom                | 0.96 | 5.4E-05 | 1.1E-03 |       8.2E-02  OK|
 | P-Mass               | 0.96 | 2.4E-05 | 1.9E-04 | 13.8  3.6E-02  OK|
 +----------------------+------+---------+---------+------------------+
 | H-Energy             | 0.93 | 1.4E-04 | 1.3E-03 |  5.5  4.7E-02  OK|
 +----------------------+------+---------+---------+------------------+
 | K-TurbKE             | 0.96 | 3.5E-04 | 1.8E-03 |  5.5  3.3E-02  OK|
 | E-Diss.K             | 0.95 | 4.2E-04 | 6.8E-03 |  7.6  1.3E-02  OK|
 +----------------------+------+---------+---------+------------------+

 ======================================================================
 OUTER LOOP ITERATION =  244 (   27) CPU SECONDS = 1.640E+02 (1.773E+01)
 ----------------------------------------------------------------------
 |       Equation       | Rate | RMS Res | Max Res |  Linear Solution |
 +----------------------+------+---------+---------+------------------+
 | U-Mom                | 0.97 | 1.1E-04 | 2.7E-03 |       2.3E-02  OK|
 | V-Mom                | 0.96 | 1.1E-04 | 2.2E-03 |       2.3E-02  OK|
 | W-Mom                | 0.96 | 5.1E-05 | 1.0E-03 |       8.2E-02  OK|
 | P-Mass               | 0.96 | 2.3E-05 | 1.9E-04 | 13.8  3.7E-02  OK|
 +----------------------+------+---------+---------+------------------+
 | H-Energy             | 0.95 | 1.4E-04 | 1.4E-03 |  5.5  4.7E-02  OK|
 +----------------------+------+---------+---------+------------------+
 | K-TurbKE             | 0.96 | 3.3E-04 | 1.7E-03 |  5.5  3.3E-02  OK|
 | E-Diss.K             | 0.95 | 4.0E-04 | 6.4E-03 |  7.6  1.3E-02  OK|
 +----------------------+------+---------+---------+------------------+

 ======================================================================
 OUTER LOOP ITERATION =  245 (   28) CPU SECONDS = 1.645E+02 (1.828E+01)
 ----------------------------------------------------------------------
 |       Equation       | Rate | RMS Res | Max Res |  Linear Solution |
 +----------------------+------+---------+---------+------------------+
 | U-Mom                | 0.97 | 1.0E-04 | 2.4E-03 |       2.3E-02  OK|
 | V-Mom                | 0.96 | 1.0E-04 | 2.0E-03 |       2.4E-02  OK|
 | W-Mom                | 0.96 | 4.9E-05 | 9.3E-04 |       8.2E-02  OK|
 | P-Mass               | 0.96 | 2.2E-05 | 1.9E-04 | 13.8  3.7E-02  OK|
 +----------------------+------+---------+---------+------------------+
 | H-Energy             | 0.95 | 1.3E-04 | 1.4E-03 |  5.5  4.7E-02  OK|
 +----------------------+------+---------+---------+------------------+
 | K-TurbKE             | 0.96 | 3.2E-04 | 1.6E-03 |  5.5  3.3E-02  OK|
 | E-Diss.K             | 0.95 | 3.8E-04 | 6.1E-03 |  7.6  1.3E-02  OK|
 +----------------------+------+---------+---------+------------------+

 ======================================================================
 |                        Timescale Information                       |
 ----------------------------------------------------------------------
 |       Equation       |         Type          |      Timescale      |
 +----------------------+-----------------------+---------------------+
 | U-Mom                | Auto Timescale        |     1.88082E-01     |
 | V-Mom                | Auto Timescale        |     1.88082E-01     |
 | W-Mom                | Auto Timescale        |     1.88082E-01     |
 +----------------------+-----------------------+---------------------+
 | H-Energy             | Auto Timescale        |     1.88082E-01     |
 +----------------------+-----------------------+---------------------+
 | K-TurbKE             | Auto Timescale        |     1.88082E-01     |
 | E-Diss.K             | Auto Timescale        |     1.88082E-01     |
 +----------------------+-----------------------+---------------------+

 ======================================================================
 OUTER LOOP ITERATION =  246 (   29) CPU SECONDS = 1.651E+02 (1.883E+01)
 ----------------------------------------------------------------------
 |       Equation       | Rate | RMS Res | Max Res |  Linear Solution |
 +----------------------+------+---------+---------+------------------+
 | U-Mom                | 0.97 | 9.9E-05 | 2.1E-03 |       2.3E-02  OK|
 | V-Mom                | 0.96 | 1.0E-04 | 1.8E-03 |       2.4E-02  OK|
 | W-Mom                | 0.96 | 4.8E-05 | 8.9E-04 |       8.1E-02  OK|
 | P-Mass               | 0.97 | 2.2E-05 | 1.9E-04 | 13.8  3.7E-02  OK|
 +----------------------+------+---------+---------+------------------+
 | H-Energy             | 0.96 | 1.2E-04 | 1.4E-03 |  5.5  4.5E-02  OK|
 +----------------------+------+---------+---------+------------------+
 | K-TurbKE             | 0.95 | 3.1E-04 | 1.5E-03 |  5.5  3.3E-02  OK|
 | E-Diss.K             | 0.94 | 3.6E-04 | 5.7E-03 |  7.6  1.2E-02  OK|
 +----------------------+------+---------+---------+------------------+

 ======================================================================
 OUTER LOOP ITERATION =  247 (   30) CPU SECONDS = 1.656E+02 (1.939E+01)
 ----------------------------------------------------------------------
 |       Equation       | Rate | RMS Res | Max Res |  Linear Solution |
 +----------------------+------+---------+---------+------------------+
 | U-Mom                | 0.97 | 9.5E-05 | 1.9E-03 |       2.3E-02  OK|
 | V-Mom                | 0.96 | 9.6E-05 | 1.6E-03 |       2.4E-02  OK|
 | W-Mom                | 0.96 | 4.6E-05 | 8.4E-04 |       8.2E-02  OK|
 | P-Mass               | 0.97 | 2.1E-05 | 1.9E-04 | 13.8  3.8E-02  OK|
 +----------------------+------+---------+---------+------------------+
 | H-Energy             | 0.96 | 1.2E-04 | 1.4E-03 |  5.5  4.5E-02  OK|
 +----------------------+------+---------+---------+------------------+
 | K-TurbKE             | 0.95 | 2.9E-04 | 1.4E-03 |  5.5  3.3E-02  OK|
 | E-Diss.K             | 0.95 | 3.4E-04 | 5.4E-03 |  7.6  1.2E-02  OK|
 +----------------------+------+---------+---------+------------------+

 ======================================================================
 OUTER LOOP ITERATION =  248 (   31) CPU SECONDS = 1.662E+02 (1.994E+01)
 ----------------------------------------------------------------------
 |       Equation       | Rate | RMS Res | Max Res |  Linear Solution |
 +----------------------+------+---------+---------+------------------+
 | U-Mom                | 0.97 | 9.3E-05 | 1.6E-03 |       2.3E-02  OK|
 | V-Mom                | 0.96 | 9.3E-05 | 1.4E-03 |       2.4E-02  OK|
 | W-Mom                | 0.96 | 4.4E-05 | 7.9E-04 |       8.3E-02  OK|
 | P-Mass               | 0.97 | 2.0E-05 | 1.8E-04 | 13.8  3.8E-02  OK|
 +----------------------+------+---------+---------+------------------+
 | H-Energy             | 0.96 | 1.1E-04 | 1.4E-03 |  5.5  4.4E-02  OK|
 +----------------------+------+---------+---------+------------------+
 | K-TurbKE             | 0.95 | 2.8E-04 | 1.3E-03 |  5.5  3.4E-02  OK|
 | E-Diss.K             | 0.96 | 3.3E-04 | 5.2E-03 |  7.6  1.2E-02  OK|
 +----------------------+------+---------+---------+------------------+

 ======================================================================
 OUTER LOOP ITERATION =  249 (   32) CPU SECONDS = 1.667E+02 (2.050E+01)
 ----------------------------------------------------------------------
 |       Equation       | Rate | RMS Res | Max Res |  Linear Solution |
 +----------------------+------+---------+---------+------------------+
 | U-Mom                | 0.97 | 9.0E-05 | 1.4E-03 |       2.3E-02  OK|
 | V-Mom                | 0.97 | 9.0E-05 | 1.2E-03 |       2.4E-02  OK|
 | W-Mom                | 0.96 | 4.2E-05 | 7.4E-04 |       8.5E-02  OK|
 | P-Mass               | 0.97 | 2.0E-05 | 1.8E-04 | 13.8  3.9E-02  OK|
 +----------------------+------+---------+---------+------------------+
 | H-Energy             | 0.96 | 1.1E-04 | 1.3E-03 |  5.5  4.4E-02  OK|
 +----------------------+------+---------+---------+------------------+
 | K-TurbKE             | 0.95 | 2.6E-04 | 1.3E-03 |  5.5  3.3E-02  OK|
 | E-Diss.K             | 0.96 | 3.1E-04 | 4.9E-03 |  7.6  1.2E-02  OK|
 +----------------------+------+---------+---------+------------------+

 ======================================================================
 OUTER LOOP ITERATION =  250 (   33) CPU SECONDS = 1.673E+02 (2.105E+01)
 ----------------------------------------------------------------------
 |       Equation       | Rate | RMS Res | Max Res |  Linear Solution |
 +----------------------+------+---------+---------+------------------+
 | U-Mom                | 0.97 | 8.7E-05 | 1.2E-03 |       2.3E-02  OK|
 | V-Mom                | 0.97 | 8.7E-05 | 1.0E-03 |       2.4E-02  OK|
 | W-Mom                | 0.96 | 4.1E-05 | 6.9E-04 |       8.7E-02  OK|
 | P-Mass               | 0.98 | 1.9E-05 | 1.7E-04 | 13.8  3.9E-02  OK|
 +----------------------+------+---------+---------+------------------+
 | H-Energy             | 0.97 | 1.1E-04 | 1.3E-03 |  5.5  4.3E-02  OK|
 +----------------------+------+---------+---------+------------------+
 | K-TurbKE             | 0.95 | 2.5E-04 | 1.2E-03 |  5.5  3.3E-02  OK|
 | E-Diss.K             | 0.96 | 3.0E-04 | 4.6E-03 |  7.6  1.2E-02  OK|
 +----------------------+------+---------+---------+------------------+

 ======================================================================
 |                        Timescale Information                       |
 ----------------------------------------------------------------------
 |       Equation       |         Type          |      Timescale      |
 +----------------------+-----------------------+---------------------+
 | U-Mom                | Auto Timescale        |     1.85556E-01     |
 | V-Mom                | Auto Timescale        |     1.85556E-01     |
 | W-Mom                | Auto Timescale        |     1.85556E-01     |
 +----------------------+-----------------------+---------------------+
 | H-Energy             | Auto Timescale        |     1.85556E-01     |
 +----------------------+-----------------------+---------------------+
 | K-TurbKE             | Auto Timescale        |     1.85556E-01     |
 | E-Diss.K             | Auto Timescale        |     1.85556E-01     |
 +----------------------+-----------------------+---------------------+

 ======================================================================
 OUTER LOOP ITERATION =  251 (   34) CPU SECONDS = 1.678E+02 (2.162E+01)
 ----------------------------------------------------------------------
 |       Equation       | Rate | RMS Res | Max Res |  Linear Solution |
 +----------------------+------+---------+---------+------------------+
 | U-Mom                | 0.97 | 8.5E-05 | 1.1E-03 |       2.3E-02  OK|
 | V-Mom                | 0.97 | 8.4E-05 | 9.0E-04 |       2.4E-02  OK|
 | W-Mom                | 0.96 | 3.9E-05 | 6.4E-04 |       8.8E-02  OK|
 | P-Mass               | 0.98 | 1.9E-05 | 1.7E-04 | 13.8  3.9E-02  OK|
 +----------------------+------+---------+---------+------------------+
 | H-Energy             | 0.97 | 1.0E-04 | 1.2E-03 |  5.5  4.2E-02  OK|
 +----------------------+------+---------+---------+------------------+
 | K-TurbKE             | 0.95 | 2.4E-04 | 1.2E-03 |  5.5  3.3E-02  OK|
 | E-Diss.K             | 0.95 | 2.8E-04 | 4.4E-03 |  7.6  1.2E-02  OK|
 +----------------------+------+---------+---------+------------------+

 ======================================================================
 OUTER LOOP ITERATION =  252 (   35) CPU SECONDS = 1.684E+02 (2.218E+01)
 ----------------------------------------------------------------------
 |       Equation       | Rate | RMS Res | Max Res |  Linear Solution |
 +----------------------+------+---------+---------+------------------+
 | U-Mom                | 0.97 | 8.3E-05 | 9.2E-04 |       2.3E-02  OK|
 | V-Mom                | 0.97 | 8.2E-05 | 7.8E-04 |       2.4E-02  OK|
 | W-Mom                | 0.96 | 3.8E-05 | 5.9E-04 |       9.0E-02  OK|
 | P-Mass               | 0.98 | 1.8E-05 | 1.6E-04 | 13.8  4.0E-02  OK|
 +----------------------+------+---------+---------+------------------+
 | H-Energy             | 0.97 | 1.0E-04 | 1.1E-03 |  5.5  4.1E-02  OK|
 +----------------------+------+---------+---------+------------------+
 | K-TurbKE             | 0.95 | 2.3E-04 | 1.2E-03 |  5.5  3.3E-02  OK|
 | E-Diss.K             | 0.96 | 2.7E-04 | 4.2E-03 |  7.6  1.2E-02  OK|
 +----------------------+------+---------+---------+------------------+

 ======================================================================
 OUTER LOOP ITERATION =  253 (   36) CPU SECONDS = 1.690E+02 (2.274E+01)
 ----------------------------------------------------------------------
 |       Equation       | Rate | RMS Res | Max Res |  Linear Solution |
 +----------------------+------+---------+---------+------------------+
 | U-Mom                | 0.98 | 8.1E-05 | 7.9E-04 |       2.3E-02  OK|
 | V-Mom                | 0.97 | 8.0E-05 | 6.5E-04 |       2.4E-02  OK|
 | W-Mom                | 0.96 | 3.6E-05 | 5.4E-04 |       9.2E-02  OK|
 | P-Mass               | 0.98 | 1.8E-05 | 1.6E-04 | 13.8  4.0E-02  OK|
 +----------------------+------+---------+---------+------------------+
 | H-Energy             | 0.98 | 9.8E-05 | 1.2E-03 |  5.5  4.0E-02  OK|
 +----------------------+------+---------+---------+------------------+
 | K-TurbKE             | 0.95 | 2.2E-04 | 1.2E-03 |  5.5  3.4E-02  OK|
 | E-Diss.K             | 0.96 | 2.6E-04 | 4.0E-03 |  7.6  1.2E-02  OK|
 +----------------------+------+---------+---------+------------------+
                   
 CFD Solver finished: Wed Dec  5 14:00:38 2018
 CFD Solver wall clock seconds: 1.9816E+01

 ======================================================================
              Termination and Interrupt Condition Summary
 ======================================================================
    
 CFD Solver: All target criteria reached
   (Equation residuals)

 ======================================================================
              Boundary Flow and Total Source Term Summary
 ======================================================================

 +--------------------------------------------------------------------+
 |                               U-Mom                                |
 +--------------------------------------------------------------------+
 Boundary         : Default Domain Default                  2.8347E+01
 Boundary         : in1                                     6.0755E-05
 Boundary         : in2                                    -6.0602E-05
 Boundary         : out                                    -2.5290E+01
                                                           -----------
 Domain Imbalance :                                         3.0568E+00

 +--------------------------------------------------------------------+
 |                               V-Mom                                |
 +--------------------------------------------------------------------+
 Boundary         : Default Domain Default                 -4.8188E+01
 Boundary         : in1                                     6.1253E+04
 Boundary         : in2                                    -6.1212E+04
 Boundary         : out                                     7.6170E+00
                                                           -----------
 Domain Imbalance :                                         5.3892E-01

 +--------------------------------------------------------------------+
 |                               W-Mom                                |
 +--------------------------------------------------------------------+
 Boundary         : Default Domain Default                 -1.2131E+04
 Boundary         : in1                                    -2.0343E-05
 Boundary         : in2                                    -1.0833E-05
 Boundary         : out                                     1.2166E+04
                                                           -----------
 Domain Imbalance :                                         3.4621E+01

 +--------------------------------------------------------------------+
 |                               P-Mass                               |
 +--------------------------------------------------------------------+
 Boundary         : in1                                     1.5000E+03
 Boundary         : in2                                     1.5000E+03
 Boundary         : out                                    -2.9999E+03
                                                           -----------
 Domain Imbalance :                                         1.4185E-01

 +--------------------------------------------------------------------+
 |                              H-Energy                              |
 +--------------------------------------------------------------------+
 Boundary         : in1                                     1.0569E+08
 Boundary         : in2                                    -8.2484E+07
 Boundary         : out                                    -2.3228E+07
                                                           -----------
 Domain Imbalance :                                        -1.9148E+04


 +--------------------------------------------------------------------+
 |                     Normalised Imbalance Summary                   |
 +--------------------------------------------------------------------+
 |       Equation       |      Maximum Flow     |     Imbalance (%)   |
 +--------------------------------------------------------------------+
 | U-Mom                |       6.1253E+04      |        0.0050       |
 | V-Mom                |       6.1253E+04      |        0.0009       |
 | W-Mom                |       6.1253E+04      |        0.0565       |
 | P-Mass               |       2.9999E+03      |        0.0047       |
 +----------------------+-----------------------+---------------------+
 | H-Energy             |       1.0569E+08      |       -0.0181       |
 +----------------------+-----------------------+---------------------+

 ======================================================================
                     Wall Force and Moment Summary
 ======================================================================
                                                                          
 Notes:
 1. Pressure integrals exclude the reference pressure.  To include
    it, set the expert parameter 'include pref in forces = t'.


 +--------------------------------------------------------------------+
 |                      Pressure Force On Walls                       |
 +--------------------------------------------------------------------+
                                    X-Comp.      Y-Comp.      Z-Comp.

 Domain Group: Default Domain

 Default Domain Default          -2.7884E+01   4.7699E+01   1.2218E+04
                                  -----------  -----------  -----------
 Domain Group Totals :           -2.7884E+01   4.7699E+01   1.2218E+04


 +--------------------------------------------------------------------+
 |                       Viscous Force On Walls                       |
 +--------------------------------------------------------------------+
                                    X-Comp.      Y-Comp.      Z-Comp.

 Domain Group: Default Domain

 Default Domain Default          -4.5869E-01   3.9651E-01  -8.6934E+01
                                  -----------  -----------  -----------
 Domain Group Totals :           -4.5869E-01   3.9651E-01  -8.6934E+01


 +--------------------------------------------------------------------+
 |                      Pressure Moment On Walls                      |
 +--------------------------------------------------------------------+
                                    X-Comp.      Y-Comp.      Z-Comp.

 Domain Group: Default Domain

 Default Domain Default          -1.6889E+01  -3.2866E+01  -1.0485E+05
                                  -----------  -----------  -----------
 Domain Group Totals :           -1.6889E+01  -3.2866E+01  -1.0485E+05


 +--------------------------------------------------------------------+
 |                       Viscous Moment On Walls                      |
 +--------------------------------------------------------------------+
                                    X-Comp.      Y-Comp.      Z-Comp.

 Domain Group: Default Domain

 Default Domain Default           1.2849E+00  -1.3050E+00  -5.6519E+03
                                  -----------  -----------  -----------
 Domain Group Totals :            1.2849E+00  -1.3050E+00  -5.6519E+03


 +--------------------------------------------------------------------+
 |                   Locations of Maximum Residuals                   |
 +--------------------------------------------------------------------+
 |       Equation       |      Domain Name      |     Node Number     |
 +--------------------------------------------------------------------+
 | U-Mom                | Default Domain        |          13918      |
 | V-Mom                | Default Domain        |          13909      |
 | W-Mom                | Default Domain        |          13960      |
 | P-Mass               | Default Domain        |          13986      |
 +----------------------+-----------------------+---------------------+
 | H-Energy             | Default Domain        |          11256      |
 +----------------------+-----------------------+---------------------+
 | K-TurbKE             | Default Domain        |           5559      |
 | E-Diss.K             | Default Domain        |          14690      |
 +----------------------+-----------------------+---------------------+

 ======================================================================
 |                     False Transient Information                    |
 +--------------------------------------------------------------------+
 |       Equation       |         Type          | Elapsed Pseudo-Time |
 +--------------------------------------------------------------------+
 | U-Mom                | Auto Timescale        |     6.93121E+00     |
 | V-Mom                | Auto Timescale        |     6.93121E+00     |
 | W-Mom                | Auto Timescale        |     6.93121E+00     |
 +----------------------+-----------------------+---------------------+
 | H-Energy             | Auto Timescale        |     6.93121E+00     |
 +----------------------+-----------------------+---------------------+
 | K-TurbKE             | Auto Timescale        |     6.93121E+00     |
 | E-Diss.K             | Auto Timescale        |     6.93121E+00     |
 +----------------------+-----------------------+---------------------+

 +--------------------------------------------------------------------+
 |                     Average Scale Information                      |
 +--------------------------------------------------------------------+

 Domain Name : Default Domain
     Global Length                                         = 3.2195E+00
     Minimum Extent                                        = 4.0000E+00
     Maximum Extent                                        = 6.0000E+00
     Density                                               = 9.9700E+02
     Dynamic Viscosity                                     = 8.8990E-04
     Velocity                                              = 5.5013E+00
     Advection Time                                        = 5.8522E-01
     Reynolds Number                                       = 1.9843E+07
     Thermal Conductivity                                  = 6.0690E-01
     Specific Heat Capacity at Constant Pressure           = 4.1817E+03
     Prandtl Number                                        = 6.1316E+00
     Temperature Range                                     = 3.0031E+01

 +--------------------------------------------------------------------+
 |                     Variable Range Information                     |
 +--------------------------------------------------------------------+

 Domain Name : Default Domain
 +--------------------------------------------------------------------+
 |      Variable Name                         |    min    |    max    |
 +--------------------------------------------------------------------+
 | Density                                    |  9.97E+02 |  9.97E+02 |
 | Specific Heat Capacity at Constant Pressure|  4.18E+03 |  4.18E+03 |
 | Dynamic Viscosity                          |  8.90E-04 |  8.90E-04 |
 | Thermal Conductivity                       |  6.07E-01 |  6.07E-01 |
 | Static Entropy                             | -1.89E+02 |  2.30E+02 |
 | Velocity u                                 | -6.63E+00 |  6.63E+00 |
 | Velocity v                                 | -6.97E+00 |  6.98E+00 |
 | Velocity w                                 | -5.34E+00 |  1.86E+00 |
 | Pressure                                   | -9.96E+03 |  7.72E+04 |
 | Turbulence Kinetic Energy                  |  1.14E-04 |  4.43E+00 |
 | Turbulence Eddy Dissipation                |  3.45E-04 |  2.20E+02 |
 | Eddy Viscosity                             |  1.21E-03 |  3.22E+02 |
 | Temperature                                |  2.85E+02 |  3.15E+02 |
 | Static Enthalpy                            | -5.51E+04 |  7.05E+04 |
 +--------------------------------------------------------------------+

 +--------------------------------------------------------------------+
 |               CPU Requirements of Numerical Solution               |
 +--------------------------------------------------------------------+

 Subsystem Name                  Discretization       Linear Solution
                                (secs.   %total)     (secs.   %total) 
 ----------------------------------------------------------------------
 Momentum and Mass              6.78E+00  26.2 %     2.25E+00   8.7 %
 Heat Transfer                  2.27E+00   8.8 %     7.69E-01   3.0 %
 TurbKE and Diss.K              3.45E+00  13.3 %     1.70E+00   6.6 %
                                -------- -------     --------  ------
 Subsystem Summary              1.25E+01  48.2 %     4.72E+00  18.2 %

 File Reading                   2.30E-02    0.1 %
 Variable Updates               2.40E+00    9.3 %
 File Writing                   2.12E-01    0.8 %
 Miscellaneous                  6.04E+00   23.3 %
                                --------
 Total                          2.59E+01

 +--------------------------------------------------------------------+
 |                   Job Information at End of Run                    |
 +--------------------------------------------------------------------+

 Host computer:  ENPC-LAB137 (PID:1128)

 Job finished:   Wed Dec  5 14:00:40 2018

 Total wall clock time: 2.589E+01 seconds
             or: (          0:         0:         0:    25.891 )
                 (       Days:     Hours:   Minutes:   Seconds )

End of solution stage.

 +--------------------------------------------------------------------+
 | The results from this run of the ANSYS CFX Solver have been        |
 | written to                                                         |
 | H:/dos/CFD/CW/CFD-Static-Mixer/StaticMixerDX_pending/dp4_CFX_Solu- |
 | tion/Fluid Flow CFX_004.res                                        |
 +--------------------------------------------------------------------+


 +--------------------------------------------------------------------+
 | For CFX runs launched from Workbench, the final locations of       |
 | directories and files generated may differ from those shown.       |
 +--------------------------------------------------------------------+


This run of the ANSYS CFX Solver has finished.
