 This run of the CFX Release 19.1 Solver started at 14:16:03 on 05 Dec
 2018 by user jc2182 on ENPC-LAB137 (intel_xeon64.sse2_winnt) using the
 command:
 
  "C:\Program Files\ANSYS Inc\v191\CFX\bin\perllib\cfx5solve.pl" -batch
    -ccl runInput.ccl -fullname "Fluid Flow CFX_006"
 
 Release 19.1
 
  Point Releases and Patches installed:
  ANSYS, Inc. Products Release 19.1
  SpaceClaim Release 19.1
  Autodyn Release 19.1
  LS-DYNA Release 19.1
  CFD-Post only Release 19.1
  CFX (includes CFD-Post) Release 19.1
  Chemkin Release 19.1
  EnSight Release 19.1
  FENSAP-ICE Release 19.1
  Fluent (includes CFD-Post) Release 19.1
  Forte Release 19.1
  Polyflow (includes CFD-Post) Release 19.1
  TurboGrid Release 19.1
  ICEM CFD Release 19.1
  Customization Files for User Programmable Features Release 19.1
  Mechanical Products Release 19.1
  Icepak (includes CFD-Post) Release 19.1
  Remote Solve Manager Standalone Services Release 19.1
  ACIS Geometry Interface Release 19.1
  Catia, Version 5 Geometry Interface Release 19.1
  NX Geometry Interface Release 19.1
  Parasolid Geometry Interface  Release 19.1
  ANSYS, Inc. License Manager Release 19.1
 
 Setting up CFX Solver run ...
 
 
 +--------------------------------------------------------------------+
 |                                                                    |
 |                    CFX Command Language for Run                    |
 |                                                                    |
 +--------------------------------------------------------------------+
 
 LIBRARY:
   CEL:
     EXPRESSIONS:
       inMassFlow = 1500 [kg s^-1]
     END
   END
   MATERIAL: Water
     Material Description = Water (liquid)
     Material Group = Water Data, Constant Property Liquids
     Option = Pure Substance
     Thermodynamic State = Liquid
     PROPERTIES:
       Option = General Material
       EQUATION OF STATE:
         Density = 997.0 [kg m^-3]
         Molar Mass = 18.02 [kg kmol^-1]
         Option = Value
       END
       SPECIFIC HEAT CAPACITY:
         Option = Value
         Specific Heat Capacity = 4181.7 [J kg^-1 K^-1]
         Specific Heat Type = Constant Pressure
       END
       REFERENCE STATE:
         Option = Specified Point
         Reference Pressure = 1 [atm]
         Reference Specific Enthalpy = 0.0 [J/kg]
         Reference Specific Entropy = 0.0 [J/kg/K]
         Reference Temperature = 25 [C]
       END
       DYNAMIC VISCOSITY:
         Dynamic Viscosity = 8.899E-4 [kg m^-1 s^-1]
         Option = Value
       END
       THERMAL CONDUCTIVITY:
         Option = Value
         Thermal Conductivity = 0.6069 [W m^-1 K^-1]
       END
       ABSORPTION COEFFICIENT:
         Absorption Coefficient = 1.0 [m^-1]
         Option = Value
       END
       SCATTERING COEFFICIENT:
         Option = Value
         Scattering Coefficient = 0.0 [m^-1]
       END
       REFRACTIVE INDEX:
         Option = Value
         Refractive Index = 1.0 [m m^-1]
       END
       THERMAL EXPANSIVITY:
         Option = Value
         Thermal Expansivity = 2.57E-04 [K^-1]
       END
     END
   END
 END
 FLOW: Flow Analysis 1
   SOLUTION UNITS:
     Angle Units = [rad]
     Length Units = [m]
     Mass Units = [kg]
     Solid Angle Units = [sr]
     Temperature Units = [K]
     Time Units = [s]
   END
   ANALYSIS TYPE:
     Option = Steady State
     EXTERNAL SOLVER COUPLING:
       Option = None
     END
   END
   DOMAIN: Default Domain
     Coord Frame = Coord 0
     Domain Type = Fluid
     Location = B17
     BOUNDARY: Default Domain Default
       Boundary Type = WALL
       Location = F12.17,F14.17,F16.17,F19.17,F20.17,F21.17
       BOUNDARY CONDITIONS:
         HEAT TRANSFER:
           Option = Adiabatic
         END
         MASS AND MOMENTUM:
           Option = No Slip Wall
         END
         WALL ROUGHNESS:
           Option = Smooth Wall
         END
       END
     END
     BOUNDARY: in1
       Boundary Type = INLET
       Location = in1
       BOUNDARY CONDITIONS:
         FLOW DIRECTION:
           Option = Normal to Boundary Condition
         END
         FLOW REGIME:
           Option = Subsonic
         END
         HEAT TRANSFER:
           Option = Static Temperature
           Static Temperature = 315 [K]
         END
         MASS AND MOMENTUM:
           Mass Flow Rate = inMassFlow
           Mass Flow Rate Area = As Specified
           Option = Mass Flow Rate
         END
         TURBULENCE:
           Option = Medium Intensity and Eddy Viscosity Ratio
         END
       END
     END
     BOUNDARY: in2
       Boundary Type = INLET
       Location = in2
       BOUNDARY CONDITIONS:
         FLOW DIRECTION:
           Option = Normal to Boundary Condition
         END
         FLOW REGIME:
           Option = Subsonic
         END
         HEAT TRANSFER:
           Option = Static Temperature
           Static Temperature = 285 [K]
         END
         MASS AND MOMENTUM:
           Mass Flow Rate = inMassFlow
           Mass Flow Rate Area = As Specified
           Option = Mass Flow Rate
         END
         TURBULENCE:
           Option = Medium Intensity and Eddy Viscosity Ratio
         END
       END
     END
     BOUNDARY: out
       Boundary Type = OUTLET
       Location = out
       BOUNDARY CONDITIONS:
         FLOW REGIME:
           Option = Subsonic
         END
         MASS AND MOMENTUM:
           Option = Static Pressure
           Relative Pressure = 0 [Pa]
         END
       END
     END
     DOMAIN MODELS:
       BUOYANCY MODEL:
         Option = Non Buoyant
       END
       DOMAIN MOTION:
         Option = Stationary
       END
       MESH DEFORMATION:
         Option = None
       END
       REFERENCE PRESSURE:
         Reference Pressure = 1 [atm]
       END
     END
     FLUID DEFINITION: Fluid 1
       Material = Water
       Option = Material Library
       MORPHOLOGY:
         Option = Continuous Fluid
       END
     END
     FLUID MODELS:
       COMBUSTION MODEL:
         Option = None
       END
       HEAT TRANSFER MODEL:
         Option = Thermal Energy
       END
       THERMAL RADIATION MODEL:
         Option = None
       END
       TURBULENCE MODEL:
         Option = k epsilon
       END
       TURBULENT WALL FUNCTIONS:
         Option = Scalable
       END
     END
   END
   OUTPUT CONTROL:
     RESULTS:
       File Compression Level = Default
       Option = Standard
     END
   END
   SOLVER CONTROL:
     Turbulence Numerics = High Resolution
     ADVECTION SCHEME:
       Option = High Resolution
     END
     CONVERGENCE CONTROL:
       Length Scale Option = Conservative
       Maximum Number of Iterations = 100
       Minimum Number of Iterations = 5
       Timescale Control = Auto Timescale
       Timescale Factor = 1.0
     END
     CONVERGENCE CRITERIA:
       Residual Target = 1.E-4
       Residual Type = RMS
     END
     DYNAMIC MODEL CONTROL:
       Global Dynamic Model Control = On
     END
   END
 END
 COMMAND FILE:
   Version = 19.1
   Results Version = 19.1
 END
 PARAMETERIZATION:
   INPUT FIELD: inMassFlow
     Expression Name = inMassFlow
     Method = Expression
   END
 END
 SIMULATION CONTROL:
   EXECUTION CONTROL:
     EXECUTABLE SELECTION:
       Double Precision = No
       Large Problem = No
     END
     INTERPOLATOR STEP CONTROL:
       Runtime Priority = Standard
       MEMORY CONTROL:
         Memory Allocation Factor = 1.0
       END
     END
     PARALLEL HOST LIBRARY:
       HOST DEFINITION: enpclab137
         Remote Host Name = ENPC-LAB137
         Host Architecture String = winnt-amd64
         Installation Root = C:\Program Files\ANSYS Inc\v%v\CFX
       END
     END
     PARTITIONER STEP CONTROL:
       Multidomain Option = Automatic
       Runtime Priority = Standard
       MEMORY CONTROL:
         Memory Allocation Factor = 1.0
       END
       PARTITION SMOOTHING:
         Maximum Partition Smoothing Sweeps = 100
         Option = Smooth
       END
       PARTITIONING TYPE:
         MeTiS Type = k-way
         Option = MeTiS
         Partition Size Rule = Automatic
       END
     END
     RUN DEFINITION:
       Run Mode = Full
       Solver Input File = Fluid Flow CFX.def
       Solver Results File = \
         H:/dos/CFD/CW/CFD-Static-Mixer/StaticMixerDX_pending/dp4_CFX_Solution\
         /Fluid Flow CFX_006.res
       INITIAL VALUES SPECIFICATION:
         INITIAL VALUES CONTROL:
           Use Mesh From = Solver Input File
           Continue History From = Workbench Initial Values
         END
         INITIAL VALUES: Workbench Initial Values
           Option = Results File
           File Name = Fluid Flow CFX_005.res
         END
       END
     END
     SOLVER STEP CONTROL:
       Runtime Priority = Standard
       MEMORY CONTROL:
         Memory Allocation Factor = 1.0
       END
       PARALLEL ENVIRONMENT:
         Number of Processes = 1
         Start Method = Serial
       END
     END
   END
 END
 
 
 +--------------------------------------------------------------------+
 |                                                                    |
 |                  Interpolation of Initial Values                   |
 |                                                                    |
 +--------------------------------------------------------------------+
 
 


 +--------------------------------------------------------------------+
 |                                                                    |
 |                    ANSYS(R) CFX(R) Interpolator                    |
 |                                                                    |
 | Release 19.1                                                       |
 | Build 19.1 2018-04-17T13:27:50.069000                              |
 | Tue Apr 17 15:02:11 GMTDT 2018                                     |
 |                                                                    |
 |                        Executable Attributes                       |
 |                                                                    |
 |           single-64bit-int32-archfort-optimised-std-lcomp          |
 |                                                                    |
 | (C) 1996-2018 ANSYS, Inc.                                          |
 |                                                                    |
 | All rights reserved. Unauthorized use, distribution or duplication |
 | is prohibited. This product is subject to U.S. laws governing      |
 | export and re-export. For full Legal Notice, see documentation.    |
 +--------------------------------------------------------------------+




 +--------------------------------------------------------------------+
 |                  Job Information at Start of Run                   |
 +--------------------------------------------------------------------+

 Run mode:       serial run

 Host computer:  ENPC-LAB137 (PID:12800)

 Job started:    Wed Dec  5 14:16:04 2018


 +--------------------------------------------------------------------+
 |        Memory Allocated for Run  (Actual usage may be less)        |
 +--------------------------------------------------------------------+

           | Real       | Integer    | Character | Logical  | Double
 ----------+------------+------------+-----------+----------+----------
 Mwords    |       0.76 |       0.75 |      0.20 |     0.01 |     0.05
 Mbytes    |       2.91 |       2.86 |      0.19 |     0.04 |     0.36
 ----------+------------+------------+-----------+----------+----------


 +--------------------------------------------------------------------+
 |                  Host Memory Information (Mbytes)                  |
 +--------------------------------------------------------------------+
 |          Host           |     System     |   Allocated    |   %    |
 +-------------------------+----------------+----------------+--------+
 | ENPC-LAB137             |     16240.97   |         6.36   |   0.04 |
 +-------------------------+----------------+----------------+--------+

 ======================================================================
               Interpolating Onto Domain "Default Domain"
 ======================================================================

 Total Number of Nodes in the Target Domain              =        15627
 Bounding Box Volume of the Target Mesh                  =  9.60000E+01


 Checking all source domains from the source file:
   Target mesh is different from domain "Default Domain".

 Searching for Candidate Source Domains:
   Domain "Default Domain"
     Number of Mapped Nodes                     =        14009 ( 89.6%)
     Bounding Box Overlap Volume                =  9.60000E+01 (100.0%)
   Setting Up Unmapped Nodes:
     Number of Unmapped Nodes                   =         1618 ( 10.4%)

 Start interpolation of variables: 
   Source Domain Name                                    Mapped Nodes
   Default Domain                                        14009 ( 89.6%)

 +--------------------------------------------------------------------+
 |                     Variable Range Information                     |
 +--------------------------------------------------------------------+
 +--------------------------------------------------------------------+
 |      Variable Name                         |    min    |    max    |
 +--------------------------------------------------------------------+
 | Thermal Conductivity                       |  6.07E-01 |  6.07E-01 |
 | Courant Number                             |  1.25E+00 |  2.73E+01 |
 | Density                                    |  9.97E+02 |  9.97E+02 |
 | Static Enthalpy                            | -5.50E+04 |  7.05E+04 |
 | Static Entropy                             | -1.89E+02 |  2.30E+02 |
 | Pressure                                   | -7.74E+03 |  6.07E+04 |
 | Specific Heat Capacity at Constant Pressure|  4.18E+03 |  4.18E+03 |
 | Specific Heat Capacity at Constant Volume  |  4.18E+03 |  4.18E+03 |
 | Turbulence Eddy Dissipation                |  3.28E-04 |  1.18E+02 |
 | Turbulence Eddy Frequency                  |  5.87E+00 |  1.54E+03 |
 | Temperature                                |  2.85E+02 |  3.15E+02 |
 | Turbulence Kinetic Energy                  |  1.12E-04 |  3.26E+00 |
 | Velocity                                   |  4.27E-01 |  7.15E+00 |
 | Dynamic Viscosity                          |  8.90E-04 |  8.90E-04 |
 | Eddy Viscosity                             |  1.21E-03 |  2.37E+02 |
 +--------------------------------------------------------------------+

 +--------------------------------------------------------------------+
 |                 CPU Requirements of Interpolation                  |
 +--------------------------------------------------------------------+

 Interpolation Step              Time    Percentage
                                (secs.   %total)
 ----------------------------------------------------------------------
 Tree Setup                     2.47E-01    7.4 %
 Interpolation                  1.20E+00   35.9 %
 Unmatched Nodes                6.50E-02    1.9 %
 Miscellaneous                  1.83E+00   54.8 %
                                --------
 Total                          3.35E+00

 +--------------------------------------------------------------------+
 |                   Job Information at End of Run                    |
 +--------------------------------------------------------------------+

 Host computer:  ENPC-LAB137 (PID:12800)

 Job finished:   Wed Dec  5 14:16:07 2018

 Total wall clock time: 3.351E+00 seconds
             or: (          0:         0:         0:     3.351 )
                 (       Days:     Hours:   Minutes:   Seconds )

 
 +--------------------------------------------------------------------+
 |                                                                    |
 |                               Solver                               |
 |                                                                    |
 +--------------------------------------------------------------------+
 



 +--------------------------------------------------------------------+
 |                                                                    |
 |                       ANSYS(R) CFX(R) Solver                       |
 |                                                                    |
 | Release 19.1                                                       |
 | Build 19.1 2018-04-17T13:27:50.069000                              |
 | Tue Apr 17 15:02:11 GMTDT 2018                                     |
 |                                                                    |
 |                        Executable Attributes                       |
 |                                                                    |
 |           single-64bit-int32-archfort-optimised-std-lcomp          |
 |                                                                    |
 | (C) 1996-2018 ANSYS, Inc.                                          |
 |                                                                    |
 | All rights reserved. Unauthorized use, distribution or duplication |
 | is prohibited. This product is subject to U.S. laws governing      |
 | export and re-export. For full Legal Notice, see documentation.    |
 +--------------------------------------------------------------------+




 +--------------------------------------------------------------------+
 |                  Job Information at Start of Run                   |
 +--------------------------------------------------------------------+

 Run mode:       serial run

 Host computer:  ENPC-LAB137 (PID:11272)

 Job started:    Wed Dec  5 14:16:11 2018

 +--------------------------------------------------------------------+
 |                        License Information                         |
 +--------------------------------------------------------------------+
 
 License Cap:    ANSYS CFX Solver (Max 128K Nodes)
 License ID:     VIGO_campus_bath_ac_uk-SYSTEM-1456-471661


 +--------------------------------------------------------------------+
 |        Memory Allocated for Run  (Actual usage may be less)        |
 +--------------------------------------------------------------------+

           | Real       | Integer    | Character | Logical  | Double
 ----------+------------+------------+-----------+----------+----------
 Mwords    |      15.06 |       3.35 |      7.26 |     0.12 |     0.45
 Mbytes    |      57.43 |      12.79 |      6.93 |     0.46 |     3.44
 ----------+------------+------------+-----------+----------+----------


 +--------------------------------------------------------------------+
 |                  Host Memory Information (Mbytes)                  |
 +--------------------------------------------------------------------+
 |          Host           |     System     |   Allocated    |   %    |
 +-------------------------+----------------+----------------+--------+
 | ENPC-LAB137             |     16240.97   |        81.04   |   0.50 |
 +-------------------------+----------------+----------------+--------+


 +--------------------------------------------------------------------+
 |                     ****** Notice ******                           |
 | The Wall Heat Transfer Coefficient written to the results file for |
 | any turbulent phase with heat transfer is based on the turbulent   |
 | wall function coefficient. It is consistent with the Wall Heat Flux|
 | the wall temperature, and the Wall Adjacent Temperature            |
 | (near-wall temperature).  If you would like it to be based on a    |
 | user-specified bulk temperature instead, please set the expert     |
 | parameter "tbulk for htc = <value>".                               |
 +--------------------------------------------------------------------+

 +--------------------------------------------------------------------+
 |                      Topology Simplification                       |
 +--------------------------------------------------------------------+

 +--------------------------------------------------------------------+
 |                       ****** Warning ******                        |
 |                                                                    |
 | Topology simplification is activated with the following            |
 | restrictions:                                                      |
 |                                                                    |
 | - Mesh regions referenced only within User Fortran and NOT         |
 |   in the command file will cause the solver to stop.               |
 | - The solver will stop during any "Edit Run in Progress" step      |
 |   if new 2D regions are referenced.                                |
 +--------------------------------------------------------------------+

 +--------------------------------------------------------------------+
 |                          Mesh Statistics                           |
 +--------------------------------------------------------------------+
 | Domain Name          | Orthog. Angle | Exp. Factor  | Aspect Ratio |
 +----------------------+---------------+--------------+--------------+
 |                      | Minimum [deg] |   Maximum    |    Maximum   |
 +----------------------+---------------+--------------+--------------+
 | Default Domain       |       30.4 ok |        13 ok |        22 OK |
 +----------------------+---------------+--------------+--------------+
 |                      |  %!  %ok  %OK | %!  %ok  %OK | %!  %ok  %OK |
 +----------------------+---------------+--------------+--------------+
 | Default Domain       |   0    2   98 |  0    1   99 |  0    0  100 |
 +----------------------+---------------+--------------+--------------+

 Domain Name : Default Domain

     Total Number of Nodes                                =       15627

     Total Number of Elements                             =       49164
         Total Number of Tetrahedrons                     =       31179
         Total Number of Prisms                           =       17985

     Total Number of Faces                                =        4877

 +--------------------------------------------------------------------+
 |      Initial Conditions Supplied by Fields in the Input Files      |
 +--------------------------------------------------------------------+

 Domain Name : Default Domain
     Courant Number
     Eddy Viscosity
     Pressure
     Specific Heat Capacity at Constant Pressure
     Static Enthalpy
     Static Entropy
     Temperature
     Turbulence Eddy Dissipation
     Turbulence Eddy Frequency
     Turbulence Kinetic Energy
     Velocity

 +--------------------------------------------------------------------+
 |                     Average Scale Information                      |
 +--------------------------------------------------------------------+

 Domain Name : Default Domain
     Global Length                                         = 3.2195E+00
     Minimum Extent                                        = 4.0000E+00
     Maximum Extent                                        = 6.0000E+00
     Density                                               = 9.9700E+02
     Dynamic Viscosity                                     = 8.8990E-04
     Velocity                                              = 4.7846E+00
     Advection Time                                        = 6.7289E-01
     Reynolds Number                                       = 1.7258E+07
     Thermal Conductivity                                  = 6.0690E-01
     Specific Heat Capacity at Constant Pressure           = 4.1817E+03
     Prandtl Number                                        = 6.1316E+00
     Temperature Range                                     = 3.0035E+01

 +--------------------------------------------------------------------+
 |                Checking for Isolated Fluid Regions                 |
 +--------------------------------------------------------------------+
 
 No isolated fluid regions were found.

 +--------------------------------------------------------------------+
 |              The Equations Solved in This Calculation              |
 +--------------------------------------------------------------------+

 Subsystem : Momentum and Mass

   U-Mom
   V-Mom
   W-Mom
   P-Mass

 Subsystem : Heat Transfer

   H-Energy

 Subsystem : TurbKE and Diss.K

   K-TurbKE
   E-Diss.K
                   
 CFD Solver started: Wed Dec  5 14:16:14 2018


 +--------------------------------------------------------------------+
 |                       Convergence History                          |
 +--------------------------------------------------------------------+

 ======================================================================
 |                        Timescale Information                       |
 ----------------------------------------------------------------------
 |       Equation       |         Type          |      Timescale      |
 +----------------------+-----------------------+---------------------+
 | U-Mom                | Auto Timescale        |     2.10947E-01     |
 | V-Mom                | Auto Timescale        |     2.10947E-01     |
 | W-Mom                | Auto Timescale        |     2.10947E-01     |
 +----------------------+-----------------------+---------------------+
 | H-Energy             | Auto Timescale        |     2.10947E-01     |
 +----------------------+-----------------------+---------------------+
 | K-TurbKE             | Auto Timescale        |     2.10947E-01     |
 | E-Diss.K             | Auto Timescale        |     2.10947E-01     |
 +----------------------+-----------------------+---------------------+

 ======================================================================
 OUTER LOOP ITERATION =  266 (    1) CPU SECONDS = 1.735E+02 (3.648E+00)
 ----------------------------------------------------------------------
 |       Equation       | Rate | RMS Res | Max Res |  Linear Solution |
 +----------------------+------+---------+---------+------------------+
 | U-Mom                | 0.00 | 4.3E-03 | 4.8E-02 |       5.2E-02  OK|
 | V-Mom                | 0.00 | 4.5E-03 | 5.3E-02 |       4.9E-02  OK|
 | W-Mom                | 0.00 | 2.8E-03 | 4.0E-02 |       5.1E-02  OK|
 | P-Mass               | 0.00 | 1.9E-03 | 3.4E-02 |  5.3  9.2E-02  OK|
 +----------------------+------+---------+---------+------------------+
 | H-Energy             | 0.00 | 8.4E-03 | 1.2E-01 |  5.5  1.2E-02  OK|
 +----------------------+------+---------+---------+------------------+
 | K-TurbKE             | 0.00 | 6.7E-03 | 6.1E-02 |  5.5  2.0E-02  OK|
 | E-Diss.K             | 0.00 | 3.4E-02 | 8.6E-01 |  7.6  2.4E-03  OK|
 +----------------------+------+---------+---------+------------------+

 ======================================================================
 OUTER LOOP ITERATION =  267 (    2) CPU SECONDS = 1.741E+02 (4.263E+00)
 ----------------------------------------------------------------------
 |       Equation       | Rate | RMS Res | Max Res |  Linear Solution |
 +----------------------+------+---------+---------+------------------+
 | U-Mom                | 0.44 | 1.9E-03 | 1.8E-02 |       4.6E-02  OK|
 | V-Mom                | 0.41 | 1.8E-03 | 1.5E-02 |       4.2E-02  OK|
 | W-Mom                | 0.46 | 1.3E-03 | 4.5E-02 |       7.0E-02  OK|
 | P-Mass               | 0.35 | 6.8E-04 | 9.7E-03 |  9.6  3.8E-02  OK|
 +----------------------+------+---------+---------+------------------+
 | H-Energy             | 0.20 | 1.7E-03 | 2.8E-02 |  5.5  3.5E-02  OK|
 +----------------------+------+---------+---------+------------------+
 | K-TurbKE             | 2.27 | 1.5E-02 | 1.8E-01 |  5.5  1.7E-02  OK|
 | E-Diss.K             | 1.41 | 4.8E-02 | 1.0E+00 |  7.6  1.9E-03  OK|
 +----------------------+------+---------+---------+------------------+

 ======================================================================
 OUTER LOOP ITERATION =  268 (    3) CPU SECONDS = 1.747E+02 (4.811E+00)
 ----------------------------------------------------------------------
 |       Equation       | Rate | RMS Res | Max Res |  Linear Solution |
 +----------------------+------+---------+---------+------------------+
 | U-Mom                | 0.63 | 1.2E-03 | 1.4E-02 |       5.1E-02  OK|
 | V-Mom                | 0.57 | 1.0E-03 | 1.0E-02 |       5.0E-02  OK|
 | W-Mom                | 0.57 | 7.4E-04 | 2.0E-02 |       8.5E-02  OK|
 | P-Mass               | 0.58 | 3.9E-04 | 4.3E-03 |  9.6  3.3E-02  OK|
 +----------------------+------+---------+---------+------------------+
 | H-Energy             | 0.82 | 1.4E-03 | 1.8E-02 |  5.5  2.7E-02  OK|
 +----------------------+------+---------+---------+------------------+
 | K-TurbKE             | 0.49 | 7.5E-03 | 8.6E-02 |  5.5  2.1E-02  OK|
 | E-Diss.K             | 0.28 | 1.3E-02 | 2.8E-01 |  7.6  6.9E-03  OK|
 +----------------------+------+---------+---------+------------------+

 ======================================================================
 OUTER LOOP ITERATION =  269 (    4) CPU SECONDS = 1.752E+02 (5.350E+00)
 ----------------------------------------------------------------------
 |       Equation       | Rate | RMS Res | Max Res |  Linear Solution |
 +----------------------+------+---------+---------+------------------+
 | U-Mom                | 0.68 | 8.2E-04 | 1.4E-02 |       3.6E-02  OK|
 | V-Mom                | 0.72 | 7.5E-04 | 1.2E-02 |       3.8E-02  OK|
 | W-Mom                | 0.68 | 5.0E-04 | 7.7E-03 |       7.7E-02  OK|
 | P-Mass               | 0.57 | 2.2E-04 | 2.4E-03 |  9.6  3.8E-02  OK|
 +----------------------+------+---------+---------+------------------+
 | H-Energy             | 0.91 | 1.2E-03 | 1.2E-02 |  5.5  2.9E-02  OK|
 +----------------------+------+---------+---------+------------------+
 | K-TurbKE             | 0.65 | 4.8E-03 | 5.7E-02 |  5.5  2.1E-02  OK|
 | E-Diss.K             | 0.42 | 5.5E-03 | 1.5E-01 |  7.6  4.7E-03  OK|
 +----------------------+------+---------+---------+------------------+

 ======================================================================
 OUTER LOOP ITERATION =  270 (    5) CPU SECONDS = 1.758E+02 (5.903E+00)
 ----------------------------------------------------------------------
 |       Equation       | Rate | RMS Res | Max Res |  Linear Solution |
 +----------------------+------+---------+---------+------------------+
 | U-Mom                | 0.77 | 6.3E-04 | 1.2E-02 |       3.0E-02  OK|
 | V-Mom                | 0.85 | 6.4E-04 | 1.2E-02 |       3.3E-02  OK|
 | W-Mom                | 0.78 | 3.9E-04 | 5.0E-03 |       5.8E-02  OK|
 | P-Mass               | 0.56 | 1.3E-04 | 1.5E-03 |  9.6  4.2E-02  OK|
 +----------------------+------+---------+---------+------------------+
 | H-Energy             | 0.91 | 1.1E-03 | 1.0E-02 |  5.5  3.0E-02  OK|
 +----------------------+------+---------+---------+------------------+
 | K-TurbKE             | 0.29 | 1.4E-03 | 1.3E-02 |  5.5  1.8E-02  OK|
 | E-Diss.K             | 0.56 | 3.1E-03 | 9.5E-02 |  7.6  8.1E-03  OK|
 +----------------------+------+---------+---------+------------------+

 ======================================================================
 |                        Timescale Information                       |
 ----------------------------------------------------------------------
 |       Equation       |         Type          |      Timescale      |
 +----------------------+-----------------------+---------------------+
 | U-Mom                | Auto Timescale        |     2.23243E-01     |
 | V-Mom                | Auto Timescale        |     2.23243E-01     |
 | W-Mom                | Auto Timescale        |     2.23243E-01     |
 +----------------------+-----------------------+---------------------+
 | H-Energy             | Auto Timescale        |     2.23243E-01     |
 +----------------------+-----------------------+---------------------+
 | K-TurbKE             | Auto Timescale        |     2.23243E-01     |
 | E-Diss.K             | Auto Timescale        |     2.23243E-01     |
 +----------------------+-----------------------+---------------------+

 ======================================================================
 OUTER LOOP ITERATION =  271 (    6) CPU SECONDS = 1.763E+02 (6.446E+00)
 ----------------------------------------------------------------------
 |       Equation       | Rate | RMS Res | Max Res |  Linear Solution |
 +----------------------+------+---------+---------+------------------+
 | U-Mom                | 0.82 | 5.2E-04 | 1.4E-02 |       4.1E-02  OK|
 | V-Mom                | 0.88 | 5.6E-04 | 1.0E-02 |       4.1E-02  OK|
 | W-Mom                | 0.86 | 3.4E-04 | 4.8E-03 |       4.7E-02  OK|
 | P-Mass               | 0.62 | 7.8E-05 | 8.2E-04 |  9.6  5.5E-02  OK|
 +----------------------+------+---------+---------+------------------+
 | H-Energy             | 0.91 | 1.0E-03 | 8.3E-03 |  5.5  3.4E-02  OK|
 +----------------------+------+---------+---------+------------------+
 | K-TurbKE             | 0.69 | 9.6E-04 | 8.9E-03 |  5.5  3.1E-02  OK|
 | E-Diss.K             | 0.58 | 1.8E-03 | 4.7E-02 |  7.6  5.5E-03  OK|
 +----------------------+------+---------+---------+------------------+

 ======================================================================
 OUTER LOOP ITERATION =  272 (    7) CPU SECONDS = 1.768E+02 (6.985E+00)
 ----------------------------------------------------------------------
 |       Equation       | Rate | RMS Res | Max Res |  Linear Solution |
 +----------------------+------+---------+---------+------------------+
 | U-Mom                | 0.86 | 4.5E-04 | 1.4E-02 |       5.4E-02  OK|
 | V-Mom                | 0.90 | 5.0E-04 | 8.5E-03 |       5.1E-02  OK|
 | W-Mom                | 0.88 | 3.0E-04 | 4.5E-03 |       7.6E-02  OK|
 | P-Mass               | 0.98 | 7.6E-05 | 8.5E-04 |  9.6  7.3E-02  OK|
 +----------------------+------+---------+---------+------------------+
 | H-Energy             | 0.89 | 9.1E-04 | 6.3E-03 |  5.5  3.3E-02  OK|
 +----------------------+------+---------+---------+------------------+
 | K-TurbKE             | 0.81 | 7.8E-04 | 8.0E-03 |  5.5  3.7E-02  OK|
 | E-Diss.K             | 1.01 | 1.8E-03 | 4.5E-02 |  7.6  4.8E-03  OK|
 +----------------------+------+---------+---------+------------------+

 ======================================================================
 OUTER LOOP ITERATION =  273 (    8) CPU SECONDS = 1.774E+02 (7.523E+00)
 ----------------------------------------------------------------------
 |       Equation       | Rate | RMS Res | Max Res |  Linear Solution |
 +----------------------+------+---------+---------+------------------+
 | U-Mom                | 0.89 | 4.0E-04 | 1.4E-02 |       6.1E-02  OK|
 | V-Mom                | 0.91 | 4.6E-04 | 7.1E-03 |       5.6E-02  OK|
 | W-Mom                | 0.90 | 2.7E-04 | 4.2E-03 |       1.1E-01  ok|
 | P-Mass               | 1.15 | 8.8E-05 | 9.8E-04 |  9.6  8.3E-02  OK|
 +----------------------+------+---------+---------+------------------+
 | H-Energy             | 0.88 | 8.0E-04 | 6.5E-03 |  5.5  3.2E-02  OK|
 +----------------------+------+---------+---------+------------------+
 | K-TurbKE             | 0.94 | 7.3E-04 | 5.3E-03 |  5.5  3.8E-02  OK|
 | E-Diss.K             | 0.98 | 1.8E-03 | 4.2E-02 |  7.6  5.9E-03  OK|
 +----------------------+------+---------+---------+------------------+

 ======================================================================
 OUTER LOOP ITERATION =  274 (    9) CPU SECONDS = 1.779E+02 (8.067E+00)
 ----------------------------------------------------------------------
 |       Equation       | Rate | RMS Res | Max Res |  Linear Solution |
 +----------------------+------+---------+---------+------------------+
 | U-Mom                | 0.90 | 3.6E-04 | 1.1E-02 |       6.4E-02  OK|
 | V-Mom                | 0.92 | 4.2E-04 | 6.8E-03 |       5.9E-02  OK|
 | W-Mom                | 0.92 | 2.5E-04 | 4.0E-03 |       1.3E-01  ok|
 | P-Mass               | 1.05 | 9.2E-05 | 1.0E-03 |  9.6  8.9E-02  OK|
 +----------------------+------+---------+---------+------------------+
 | H-Energy             | 0.89 | 7.1E-04 | 6.6E-03 |  5.5  3.1E-02  OK|
 +----------------------+------+---------+---------+------------------+
 | K-TurbKE             | 1.02 | 7.5E-04 | 4.5E-03 |  5.5  3.8E-02  OK|
 | E-Diss.K             | 0.93 | 1.6E-03 | 3.7E-02 |  7.6  7.9E-03  OK|
 +----------------------+------+---------+---------+------------------+

 ======================================================================
 OUTER LOOP ITERATION =  275 (   10) CPU SECONDS = 1.785E+02 (8.621E+00)
 ----------------------------------------------------------------------
 |       Equation       | Rate | RMS Res | Max Res |  Linear Solution |
 +----------------------+------+---------+---------+------------------+
 | U-Mom                | 0.91 | 3.3E-04 | 7.1E-03 |       6.6E-02  OK|
 | V-Mom                | 0.93 | 3.9E-04 | 7.3E-03 |       6.1E-02  OK|
 | W-Mom                | 0.93 | 2.3E-04 | 3.8E-03 |       1.3E-01  ok|
 | P-Mass               | 0.99 | 9.1E-05 | 1.0E-03 |  9.6  9.3E-02  OK|
 +----------------------+------+---------+---------+------------------+
 | H-Energy             | 0.91 | 6.4E-04 | 6.2E-03 |  5.5  3.1E-02  OK|
 +----------------------+------+---------+---------+------------------+
 | K-TurbKE             | 1.06 | 7.9E-04 | 3.9E-03 |  5.5  3.7E-02  OK|
 | E-Diss.K             | 1.09 | 1.8E-03 | 4.0E-02 |  7.6  8.4E-03  OK|
 +----------------------+------+---------+---------+------------------+

 ======================================================================
 |                        Timescale Information                       |
 ----------------------------------------------------------------------
 |       Equation       |         Type          |      Timescale      |
 +----------------------+-----------------------+---------------------+
 | U-Mom                | Auto Timescale        |     2.21210E-01     |
 | V-Mom                | Auto Timescale        |     2.21210E-01     |
 | W-Mom                | Auto Timescale        |     2.21210E-01     |
 +----------------------+-----------------------+---------------------+
 | H-Energy             | Auto Timescale        |     2.21210E-01     |
 +----------------------+-----------------------+---------------------+
 | K-TurbKE             | Auto Timescale        |     2.21210E-01     |
 | E-Diss.K             | Auto Timescale        |     2.21210E-01     |
 +----------------------+-----------------------+---------------------+

 ======================================================================
 OUTER LOOP ITERATION =  276 (   11) CPU SECONDS = 1.790E+02 (9.164E+00)
 ----------------------------------------------------------------------
 |       Equation       | Rate | RMS Res | Max Res |  Linear Solution |
 +----------------------+------+---------+---------+------------------+
 | U-Mom                | 0.92 | 3.0E-04 | 6.0E-03 |       6.7E-02  OK|
 | V-Mom                | 0.94 | 3.7E-04 | 8.1E-03 |       6.1E-02  OK|
 | W-Mom                | 0.93 | 2.1E-04 | 3.7E-03 |       1.4E-01  ok|
 | P-Mass               | 0.96 | 8.7E-05 | 9.5E-04 |  9.6  9.4E-02  OK|
 +----------------------+------+---------+---------+------------------+
 | H-Energy             | 0.92 | 5.9E-04 | 5.4E-03 |  5.5  3.0E-02  OK|
 +----------------------+------+---------+---------+------------------+
 | K-TurbKE             | 1.04 | 8.2E-04 | 3.8E-03 |  5.5  3.6E-02  OK|
 | E-Diss.K             | 1.01 | 1.8E-03 | 4.0E-02 |  7.6  8.5E-03  OK|
 +----------------------+------+---------+---------+------------------+

 ======================================================================
 OUTER LOOP ITERATION =  277 (   12) CPU SECONDS = 1.796E+02 (9.702E+00)
 ----------------------------------------------------------------------
 |       Equation       | Rate | RMS Res | Max Res |  Linear Solution |
 +----------------------+------+---------+---------+------------------+
 | U-Mom                | 0.95 | 2.8E-04 | 6.1E-03 |       6.7E-02  OK|
 | V-Mom                | 0.94 | 3.5E-04 | 7.4E-03 |       6.1E-02  OK|
 | W-Mom                | 0.92 | 2.0E-04 | 3.4E-03 |       1.5E-01  ok|
 | P-Mass               | 0.93 | 8.2E-05 | 8.5E-04 |  9.6  9.5E-02  OK|
 +----------------------+------+---------+---------+------------------+
 | H-Energy             | 0.92 | 5.4E-04 | 5.1E-03 |  5.5  2.9E-02  OK|
 +----------------------+------+---------+---------+------------------+
 | K-TurbKE             | 1.02 | 8.3E-04 | 3.6E-03 |  5.5  3.5E-02  OK|
 | E-Diss.K             | 0.94 | 1.7E-03 | 3.7E-02 |  7.6  8.8E-03  OK|
 +----------------------+------+---------+---------+------------------+

 ======================================================================
 OUTER LOOP ITERATION =  278 (   13) CPU SECONDS = 1.801E+02 (1.025E+01)
 ----------------------------------------------------------------------
 |       Equation       | Rate | RMS Res | Max Res |  Linear Solution |
 +----------------------+------+---------+---------+------------------+
 | U-Mom                | 0.96 | 2.7E-04 | 6.2E-03 |       6.6E-02  OK|
 | V-Mom                | 0.94 | 3.2E-04 | 6.4E-03 |       6.1E-02  OK|
 | W-Mom                | 0.92 | 1.8E-04 | 3.2E-03 |       1.6E-01  ok|
 | P-Mass               | 0.93 | 7.6E-05 | 7.5E-04 |  9.6  9.5E-02  OK|
 +----------------------+------+---------+---------+------------------+
 | H-Energy             | 0.91 | 4.9E-04 | 5.2E-03 |  5.5  2.9E-02  OK|
 +----------------------+------+---------+---------+------------------+
 | K-TurbKE             | 1.00 | 8.4E-04 | 3.4E-03 |  5.5  3.5E-02  OK|
 | E-Diss.K             | 0.93 | 1.6E-03 | 3.3E-02 |  7.6  9.4E-03  OK|
 +----------------------+------+---------+---------+------------------+

 ======================================================================
 OUTER LOOP ITERATION =  279 (   14) CPU SECONDS = 1.807E+02 (1.082E+01)
 ----------------------------------------------------------------------
 |       Equation       | Rate | RMS Res | Max Res |  Linear Solution |
 +----------------------+------+---------+---------+------------------+
 | U-Mom                | 0.97 | 2.6E-04 | 6.4E-03 |       6.6E-02  OK|
 | V-Mom                | 0.93 | 3.0E-04 | 6.4E-03 |       6.2E-02  OK|
 | W-Mom                | 0.92 | 1.6E-04 | 2.9E-03 |       1.7E-01  ok|
 | P-Mass               | 0.92 | 7.0E-05 | 6.8E-04 |  9.6  9.4E-02  OK|
 +----------------------+------+---------+---------+------------------+
 | H-Energy             | 0.91 | 4.5E-04 | 4.6E-03 |  5.5  3.0E-02  OK|
 +----------------------+------+---------+---------+------------------+
 | K-TurbKE             | 1.00 | 8.4E-04 | 3.1E-03 |  5.5  3.5E-02  OK|
 | E-Diss.K             | 0.93 | 1.5E-03 | 3.1E-02 |  7.6  9.9E-03  OK|
 +----------------------+------+---------+---------+------------------+

 ======================================================================
 OUTER LOOP ITERATION =  280 (   15) CPU SECONDS = 1.812E+02 (1.138E+01)
 ----------------------------------------------------------------------
 |       Equation       | Rate | RMS Res | Max Res |  Linear Solution |
 +----------------------+------+---------+---------+------------------+
 | U-Mom                | 0.97 | 2.6E-04 | 6.9E-03 |       6.6E-02  OK|
 | V-Mom                | 0.93 | 2.8E-04 | 6.5E-03 |       6.3E-02  OK|
 | W-Mom                | 0.92 | 1.5E-04 | 2.9E-03 |       1.8E-01  ok|
 | P-Mass               | 0.92 | 6.4E-05 | 6.1E-04 |  9.6  9.3E-02  OK|
 +----------------------+------+---------+---------+------------------+
 | H-Energy             | 0.91 | 4.1E-04 | 5.0E-03 |  5.5  3.1E-02  OK|
 +----------------------+------+---------+---------+------------------+
 | K-TurbKE             | 0.99 | 8.3E-04 | 2.9E-03 |  5.5  3.5E-02  OK|
 | E-Diss.K             | 0.93 | 1.4E-03 | 2.8E-02 |  7.6  1.0E-02  OK|
 +----------------------+------+---------+---------+------------------+

 ======================================================================
 |                        Timescale Information                       |
 ----------------------------------------------------------------------
 |       Equation       |         Type          |      Timescale      |
 +----------------------+-----------------------+---------------------+
 | U-Mom                | Auto Timescale        |     2.17025E-01     |
 | V-Mom                | Auto Timescale        |     2.17025E-01     |
 | W-Mom                | Auto Timescale        |     2.17025E-01     |
 +----------------------+-----------------------+---------------------+
 | H-Energy             | Auto Timescale        |     2.17025E-01     |
 +----------------------+-----------------------+---------------------+
 | K-TurbKE             | Auto Timescale        |     2.17025E-01     |
 | E-Diss.K             | Auto Timescale        |     2.17025E-01     |
 +----------------------+-----------------------+---------------------+

 ======================================================================
 OUTER LOOP ITERATION =  281 (   16) CPU SECONDS = 1.818E+02 (1.193E+01)
 ----------------------------------------------------------------------
 |       Equation       | Rate | RMS Res | Max Res |  Linear Solution |
 +----------------------+------+---------+---------+------------------+
 | U-Mom                | 0.96 | 2.5E-04 | 7.5E-03 |       6.6E-02  OK|
 | V-Mom                | 0.93 | 2.6E-04 | 6.6E-03 |       6.3E-02  OK|
 | W-Mom                | 0.92 | 1.4E-04 | 2.9E-03 |       1.8E-01  ok|
 | P-Mass               | 0.92 | 6.0E-05 | 5.5E-04 |  9.6  9.2E-02  OK|
 +----------------------+------+---------+---------+------------------+
 | H-Energy             | 0.92 | 3.8E-04 | 4.2E-03 |  5.5  3.2E-02  OK|
 +----------------------+------+---------+---------+------------------+
 | K-TurbKE             | 0.99 | 8.2E-04 | 2.6E-03 |  5.5  3.4E-02  OK|
 | E-Diss.K             | 0.92 | 1.3E-03 | 2.6E-02 |  7.6  1.0E-02  OK|
 +----------------------+------+---------+---------+------------------+

 ======================================================================
 OUTER LOOP ITERATION =  282 (   17) CPU SECONDS = 1.823E+02 (1.246E+01)
 ----------------------------------------------------------------------
 |       Equation       | Rate | RMS Res | Max Res |  Linear Solution |
 +----------------------+------+---------+---------+------------------+
 | U-Mom                | 0.95 | 2.3E-04 | 7.6E-03 |       6.7E-02  OK|
 | V-Mom                | 0.93 | 2.4E-04 | 6.5E-03 |       6.4E-02  OK|
 | W-Mom                | 0.92 | 1.3E-04 | 2.9E-03 |       1.8E-01  ok|
 | P-Mass               | 0.92 | 5.5E-05 | 4.9E-04 |  9.6  9.2E-02  OK|
 +----------------------+------+---------+---------+------------------+
 | H-Energy             | 0.92 | 3.5E-04 | 4.0E-03 |  5.5  3.4E-02  OK|
 +----------------------+------+---------+---------+------------------+
 | K-TurbKE             | 0.99 | 8.1E-04 | 2.5E-03 |  5.5  3.4E-02  OK|
 | E-Diss.K             | 0.94 | 1.2E-03 | 2.5E-02 |  7.6  1.1E-02  OK|
 +----------------------+------+---------+---------+------------------+

 ======================================================================
 OUTER LOOP ITERATION =  283 (   18) CPU SECONDS = 1.829E+02 (1.300E+01)
 ----------------------------------------------------------------------
 |       Equation       | Rate | RMS Res | Max Res |  Linear Solution |
 +----------------------+------+---------+---------+------------------+
 | U-Mom                | 0.95 | 2.2E-04 | 7.5E-03 |       6.9E-02  OK|
 | V-Mom                | 0.94 | 2.3E-04 | 6.4E-03 |       6.6E-02  OK|
 | W-Mom                | 0.92 | 1.2E-04 | 2.9E-03 |       1.8E-01  ok|
 | P-Mass               | 0.93 | 5.1E-05 | 4.4E-04 |  9.6  9.3E-02  OK|
 +----------------------+------+---------+---------+------------------+
 | H-Energy             | 0.92 | 3.2E-04 | 3.9E-03 |  5.5  3.7E-02  OK|
 +----------------------+------+---------+---------+------------------+
 | K-TurbKE             | 0.98 | 7.9E-04 | 2.6E-03 |  5.5  3.4E-02  OK|
 | E-Diss.K             | 0.95 | 1.1E-03 | 2.3E-02 |  7.6  1.1E-02  OK|
 +----------------------+------+---------+---------+------------------+

 ======================================================================
 OUTER LOOP ITERATION =  284 (   19) CPU SECONDS = 1.834E+02 (1.355E+01)
 ----------------------------------------------------------------------
 |       Equation       | Rate | RMS Res | Max Res |  Linear Solution |
 +----------------------+------+---------+---------+------------------+
 | U-Mom                | 0.94 | 2.1E-04 | 7.2E-03 |       7.0E-02  OK|
 | V-Mom                | 0.95 | 2.2E-04 | 6.1E-03 |       6.7E-02  OK|
 | W-Mom                | 0.93 | 1.1E-04 | 2.9E-03 |       1.8E-01  ok|
 | P-Mass               | 0.93 | 4.7E-05 | 4.0E-04 |  9.6  9.5E-02  OK|
 +----------------------+------+---------+---------+------------------+
 | H-Energy             | 0.93 | 3.0E-04 | 4.0E-03 |  5.5  3.9E-02  OK|
 +----------------------+------+---------+---------+------------------+
 | K-TurbKE             | 0.98 | 7.8E-04 | 2.6E-03 |  5.5  3.4E-02  OK|
 | E-Diss.K             | 0.95 | 1.1E-03 | 2.1E-02 |  7.6  1.1E-02  OK|
 +----------------------+------+---------+---------+------------------+

 ======================================================================
 OUTER LOOP ITERATION =  285 (   20) CPU SECONDS = 1.840E+02 (1.410E+01)
 ----------------------------------------------------------------------
 |       Equation       | Rate | RMS Res | Max Res |  Linear Solution |
 +----------------------+------+---------+---------+------------------+
 | U-Mom                | 0.95 | 2.0E-04 | 6.8E-03 |       7.2E-02  OK|
 | V-Mom                | 0.95 | 2.1E-04 | 5.8E-03 |       6.9E-02  OK|
 | W-Mom                | 0.93 | 1.0E-04 | 2.9E-03 |       1.8E-01  ok|
 | P-Mass               | 0.93 | 4.4E-05 | 3.5E-04 |  9.6  9.7E-02  OK|
 +----------------------+------+---------+---------+------------------+
 | H-Energy             | 0.95 | 2.8E-04 | 4.1E-03 |  5.5  4.0E-02  OK|
 +----------------------+------+---------+---------+------------------+
 | K-TurbKE             | 0.97 | 7.6E-04 | 2.6E-03 |  5.5  3.4E-02  OK|
 | E-Diss.K             | 0.95 | 1.0E-03 | 2.0E-02 |  7.6  1.1E-02  OK|
 +----------------------+------+---------+---------+------------------+

 ======================================================================
 |                        Timescale Information                       |
 ----------------------------------------------------------------------
 |       Equation       |         Type          |      Timescale      |
 +----------------------+-----------------------+---------------------+
 | U-Mom                | Auto Timescale        |     2.12721E-01     |
 | V-Mom                | Auto Timescale        |     2.12721E-01     |
 | W-Mom                | Auto Timescale        |     2.12721E-01     |
 +----------------------+-----------------------+---------------------+
 | H-Energy             | Auto Timescale        |     2.12721E-01     |
 +----------------------+-----------------------+---------------------+
 | K-TurbKE             | Auto Timescale        |     2.12721E-01     |
 | E-Diss.K             | Auto Timescale        |     2.12721E-01     |
 +----------------------+-----------------------+---------------------+

 ======================================================================
 OUTER LOOP ITERATION =  286 (   21) CPU SECONDS = 1.845E+02 (1.465E+01)
 ----------------------------------------------------------------------
 |       Equation       | Rate | RMS Res | Max Res |  Linear Solution |
 +----------------------+------+---------+---------+------------------+
 | U-Mom                | 0.95 | 1.9E-04 | 6.4E-03 |       7.1E-02  OK|
 | V-Mom                | 0.94 | 1.9E-04 | 5.3E-03 |       6.9E-02  OK|
 | W-Mom                | 0.93 | 9.4E-05 | 2.8E-03 |       1.7E-01  ok|
 | P-Mass               | 0.93 | 4.1E-05 | 3.2E-04 |  9.6  9.8E-02  OK|
 +----------------------+------+---------+---------+------------------+
 | H-Energy             | 0.95 | 2.7E-04 | 3.8E-03 |  5.5  3.9E-02  OK|
 +----------------------+------+---------+---------+------------------+
 | K-TurbKE             | 0.97 | 7.3E-04 | 2.6E-03 |  5.5  3.4E-02  OK|
 | E-Diss.K             | 0.94 | 9.6E-04 | 1.8E-02 |  7.6  1.1E-02  OK|
 +----------------------+------+---------+---------+------------------+

 ======================================================================
 OUTER LOOP ITERATION =  287 (   22) CPU SECONDS = 1.850E+02 (1.518E+01)
 ----------------------------------------------------------------------
 |       Equation       | Rate | RMS Res | Max Res |  Linear Solution |
 +----------------------+------+---------+---------+------------------+
 | U-Mom                | 0.96 | 1.8E-04 | 5.9E-03 |       2.6E-02  OK|
 | V-Mom                | 0.94 | 1.8E-04 | 4.9E-03 |       2.7E-02  OK|
 | W-Mom                | 0.93 | 8.8E-05 | 2.7E-03 |       8.4E-02  OK|
 | P-Mass               | 0.92 | 3.8E-05 | 3.0E-04 | 13.8  3.6E-02  OK|
 +----------------------+------+---------+---------+------------------+
 | H-Energy             | 0.95 | 2.5E-04 | 3.6E-03 |  5.5  3.9E-02  OK|
 +----------------------+------+---------+---------+------------------+
 | K-TurbKE             | 0.97 | 7.1E-04 | 2.6E-03 |  5.5  3.4E-02  OK|
 | E-Diss.K             | 0.97 | 9.3E-04 | 1.8E-02 |  7.6  1.1E-02  OK|
 +----------------------+------+---------+---------+------------------+

 ======================================================================
 OUTER LOOP ITERATION =  288 (   23) CPU SECONDS = 1.856E+02 (1.572E+01)
 ----------------------------------------------------------------------
 |       Equation       | Rate | RMS Res | Max Res |  Linear Solution |
 +----------------------+------+---------+---------+------------------+
 | U-Mom                | 0.96 | 1.7E-04 | 5.3E-03 |       6.6E-02  OK|
 | V-Mom                | 0.94 | 1.7E-04 | 4.5E-03 |       6.6E-02  OK|
 | W-Mom                | 0.93 | 8.2E-05 | 2.6E-03 |       1.3E-01  ok|
 | P-Mass               | 0.97 | 3.7E-05 | 2.8E-04 |  9.6  9.8E-02  OK|
 +----------------------+------+---------+---------+------------------+
 | H-Energy             | 0.99 | 2.5E-04 | 3.4E-03 |  5.5  4.0E-02  OK|
 +----------------------+------+---------+---------+------------------+
 | K-TurbKE             | 0.96 | 6.8E-04 | 2.6E-03 |  5.5  3.5E-02  OK|
 | E-Diss.K             | 0.91 | 8.5E-04 | 1.5E-02 |  7.6  1.1E-02  OK|
 +----------------------+------+---------+---------+------------------+

 ======================================================================
 OUTER LOOP ITERATION =  289 (   24) CPU SECONDS = 1.861E+02 (1.626E+01)
 ----------------------------------------------------------------------
 |       Equation       | Rate | RMS Res | Max Res |  Linear Solution |
 +----------------------+------+---------+---------+------------------+
 | U-Mom                | 0.98 | 1.7E-04 | 4.8E-03 |       2.6E-02  OK|
 | V-Mom                | 0.94 | 1.6E-04 | 4.1E-03 |       2.7E-02  OK|
 | W-Mom                | 0.95 | 7.7E-05 | 2.4E-03 |       7.7E-02  OK|
 | P-Mass               | 0.88 | 3.2E-05 | 2.4E-04 | 13.8  3.8E-02  OK|
 +----------------------+------+---------+---------+------------------+
 | H-Energy             | 0.95 | 2.4E-04 | 3.2E-03 |  5.5  4.0E-02  OK|
 +----------------------+------+---------+---------+------------------+
 | K-TurbKE             | 0.96 | 6.6E-04 | 2.6E-03 |  5.5  3.5E-02  OK|
 | E-Diss.K             | 0.97 | 8.2E-04 | 1.5E-02 |  7.6  1.1E-02  OK|
 +----------------------+------+---------+---------+------------------+

 ======================================================================
 OUTER LOOP ITERATION =  290 (   25) CPU SECONDS = 1.867E+02 (1.679E+01)
 ----------------------------------------------------------------------
 |       Equation       | Rate | RMS Res | Max Res |  Linear Solution |
 +----------------------+------+---------+---------+------------------+
 | U-Mom                | 0.94 | 1.6E-04 | 4.2E-03 |       2.3E-02  OK|
 | V-Mom                | 0.94 | 1.5E-04 | 3.6E-03 |       2.5E-02  OK|
 | W-Mom                | 0.94 | 7.2E-05 | 2.3E-03 |       6.4E-02  OK|
 | P-Mass               | 0.98 | 3.2E-05 | 2.2E-04 | 13.8  3.5E-02  OK|
 +----------------------+------+---------+---------+------------------+
 | H-Energy             | 0.97 | 2.3E-04 | 3.0E-03 |  5.5  4.0E-02  OK|
 +----------------------+------+---------+---------+------------------+
 | K-TurbKE             | 0.96 | 6.3E-04 | 2.7E-03 |  5.5  3.5E-02  OK|
 | E-Diss.K             | 0.93 | 7.6E-04 | 1.4E-02 |  7.6  1.1E-02  OK|
 +----------------------+------+---------+---------+------------------+

 ======================================================================
 |                        Timescale Information                       |
 ----------------------------------------------------------------------
 |       Equation       |         Type          |      Timescale      |
 +----------------------+-----------------------+---------------------+
 | U-Mom                | Auto Timescale        |     2.08668E-01     |
 | V-Mom                | Auto Timescale        |     2.08668E-01     |
 | W-Mom                | Auto Timescale        |     2.08668E-01     |
 +----------------------+-----------------------+---------------------+
 | H-Energy             | Auto Timescale        |     2.08668E-01     |
 +----------------------+-----------------------+---------------------+
 | K-TurbKE             | Auto Timescale        |     2.08668E-01     |
 | E-Diss.K             | Auto Timescale        |     2.08668E-01     |
 +----------------------+-----------------------+---------------------+

 ======================================================================
 OUTER LOOP ITERATION =  291 (   26) CPU SECONDS = 1.872E+02 (1.736E+01)
 ----------------------------------------------------------------------
 |       Equation       | Rate | RMS Res | Max Res |  Linear Solution |
 +----------------------+------+---------+---------+------------------+
 | U-Mom                | 0.96 | 1.5E-04 | 3.6E-03 |       2.2E-02  OK|
 | V-Mom                | 0.96 | 1.4E-04 | 3.2E-03 |       2.4E-02  OK|
 | W-Mom                | 0.95 | 6.9E-05 | 2.1E-03 |       6.2E-02  OK|
 | P-Mass               | 0.93 | 2.9E-05 | 2.1E-04 | 13.8  3.6E-02  OK|
 +----------------------+------+---------+---------+------------------+
 | H-Energy             | 0.97 | 2.3E-04 | 2.9E-03 |  5.5  3.9E-02  OK|
 +----------------------+------+---------+---------+------------------+
 | K-TurbKE             | 0.95 | 6.0E-04 | 2.6E-03 |  5.5  3.4E-02  OK|
 | E-Diss.K             | 0.92 | 7.0E-04 | 1.3E-02 |  7.6  1.1E-02  OK|
 +----------------------+------+---------+---------+------------------+

 ======================================================================
 OUTER LOOP ITERATION =  292 (   27) CPU SECONDS = 1.878E+02 (1.792E+01)
 ----------------------------------------------------------------------
 |       Equation       | Rate | RMS Res | Max Res |  Linear Solution |
 +----------------------+------+---------+---------+------------------+
 | U-Mom                | 0.95 | 1.5E-04 | 3.1E-03 |       2.3E-02  OK|
 | V-Mom                | 0.96 | 1.4E-04 | 2.8E-03 |       2.4E-02  OK|
 | W-Mom                | 0.96 | 6.7E-05 | 1.9E-03 |       6.2E-02  OK|
 | P-Mass               | 0.94 | 2.8E-05 | 2.1E-04 | 13.8  3.7E-02  OK|
 +----------------------+------+---------+---------+------------------+
 | H-Energy             | 0.97 | 2.2E-04 | 2.6E-03 |  5.5  3.9E-02  OK|
 +----------------------+------+---------+---------+------------------+
 | K-TurbKE             | 0.95 | 5.7E-04 | 2.6E-03 |  5.5  3.4E-02  OK|
 | E-Diss.K             | 0.93 | 6.5E-04 | 1.2E-02 |  7.6  1.1E-02  OK|
 +----------------------+------+---------+---------+------------------+

 ======================================================================
 OUTER LOOP ITERATION =  293 (   28) CPU SECONDS = 1.883E+02 (1.848E+01)
 ----------------------------------------------------------------------
 |       Equation       | Rate | RMS Res | Max Res |  Linear Solution |
 +----------------------+------+---------+---------+------------------+
 | U-Mom                | 0.96 | 1.4E-04 | 2.7E-03 |       2.2E-02  OK|
 | V-Mom                | 0.97 | 1.3E-04 | 2.4E-03 |       2.4E-02  OK|
 | W-Mom                | 0.97 | 6.4E-05 | 1.7E-03 |       6.3E-02  OK|
 | P-Mass               | 0.95 | 2.6E-05 | 2.1E-04 | 13.8  3.8E-02  OK|
 +----------------------+------+---------+---------+------------------+
 | H-Energy             | 0.97 | 2.1E-04 | 2.4E-03 |  5.5  3.8E-02  OK|
 +----------------------+------+---------+---------+------------------+
 | K-TurbKE             | 0.95 | 5.4E-04 | 2.5E-03 |  5.5  3.5E-02  OK|
 | E-Diss.K             | 0.93 | 6.1E-04 | 1.1E-02 |  7.6  1.1E-02  OK|
 +----------------------+------+---------+---------+------------------+

 ======================================================================
 OUTER LOOP ITERATION =  294 (   29) CPU SECONDS = 1.889E+02 (1.904E+01)
 ----------------------------------------------------------------------
 |       Equation       | Rate | RMS Res | Max Res |  Linear Solution |
 +----------------------+------+---------+---------+------------------+
 | U-Mom                | 0.96 | 1.4E-04 | 2.3E-03 |       2.2E-02  OK|
 | V-Mom                | 0.97 | 1.3E-04 | 2.2E-03 |       2.4E-02  OK|
 | W-Mom                | 0.97 | 6.2E-05 | 1.5E-03 |       6.4E-02  OK|
 | P-Mass               | 0.96 | 2.5E-05 | 2.1E-04 | 13.8  3.9E-02  OK|
 +----------------------+------+---------+---------+------------------+
 | H-Energy             | 0.96 | 2.0E-04 | 2.4E-03 |  5.5  3.7E-02  OK|
 +----------------------+------+---------+---------+------------------+
 | K-TurbKE             | 0.94 | 5.1E-04 | 2.5E-03 |  5.5  3.5E-02  OK|
 | E-Diss.K             | 0.93 | 5.7E-04 | 1.1E-02 |  7.6  1.1E-02  OK|
 +----------------------+------+---------+---------+------------------+

 ======================================================================
 OUTER LOOP ITERATION =  295 (   30) CPU SECONDS = 1.894E+02 (1.959E+01)
 ----------------------------------------------------------------------
 |       Equation       | Rate | RMS Res | Max Res |  Linear Solution |
 +----------------------+------+---------+---------+------------------+
 | U-Mom                | 0.97 | 1.3E-04 | 2.0E-03 |       2.2E-02  OK|
 | V-Mom                | 0.97 | 1.3E-04 | 2.2E-03 |       2.4E-02  OK|
 | W-Mom                | 0.97 | 6.0E-05 | 1.4E-03 |       6.5E-02  OK|
 | P-Mass               | 0.97 | 2.4E-05 | 2.0E-04 | 13.8  4.0E-02  OK|
 +----------------------+------+---------+---------+------------------+
 | H-Energy             | 0.96 | 2.0E-04 | 2.6E-03 |  5.5  3.6E-02  OK|
 +----------------------+------+---------+---------+------------------+
 | K-TurbKE             | 0.94 | 4.8E-04 | 2.4E-03 |  5.5  3.5E-02  OK|
 | E-Diss.K             | 0.93 | 5.2E-04 | 1.0E-02 |  7.6  1.1E-02  OK|
 +----------------------+------+---------+---------+------------------+

 ======================================================================
 |                        Timescale Information                       |
 ----------------------------------------------------------------------
 |       Equation       |         Type          |      Timescale      |
 +----------------------+-----------------------+---------------------+
 | U-Mom                | Auto Timescale        |     2.04993E-01     |
 | V-Mom                | Auto Timescale        |     2.04993E-01     |
 | W-Mom                | Auto Timescale        |     2.04993E-01     |
 +----------------------+-----------------------+---------------------+
 | H-Energy             | Auto Timescale        |     2.04993E-01     |
 +----------------------+-----------------------+---------------------+
 | K-TurbKE             | Auto Timescale        |     2.04993E-01     |
 | E-Diss.K             | Auto Timescale        |     2.04993E-01     |
 +----------------------+-----------------------+---------------------+

 ======================================================================
 OUTER LOOP ITERATION =  296 (   31) CPU SECONDS = 1.900E+02 (2.015E+01)
 ----------------------------------------------------------------------
 |       Equation       | Rate | RMS Res | Max Res |  Linear Solution |
 +----------------------+------+---------+---------+------------------+
 | U-Mom                | 0.98 | 1.3E-04 | 2.1E-03 |       2.1E-02  OK|
 | V-Mom                | 0.97 | 1.2E-04 | 2.4E-03 |       2.3E-02  OK|
 | W-Mom                | 0.97 | 5.9E-05 | 1.3E-03 |       6.6E-02  OK|
 | P-Mass               | 0.97 | 2.4E-05 | 2.0E-04 | 13.8  3.9E-02  OK|
 +----------------------+------+---------+---------+------------------+
 | H-Energy             | 0.96 | 1.9E-04 | 2.7E-03 |  5.5  3.5E-02  OK|
 +----------------------+------+---------+---------+------------------+
 | K-TurbKE             | 0.94 | 4.5E-04 | 2.2E-03 |  5.5  3.5E-02  OK|
 | E-Diss.K             | 0.92 | 4.8E-04 | 9.3E-03 |  7.6  1.1E-02  OK|
 +----------------------+------+---------+---------+------------------+

 ======================================================================
 OUTER LOOP ITERATION =  297 (   32) CPU SECONDS = 1.906E+02 (2.070E+01)
 ----------------------------------------------------------------------
 |       Equation       | Rate | RMS Res | Max Res |  Linear Solution |
 +----------------------+------+---------+---------+------------------+
 | U-Mom                | 0.98 | 1.3E-04 | 2.2E-03 |       2.1E-02  OK|
 | V-Mom                | 0.97 | 1.2E-04 | 2.3E-03 |       2.3E-02  OK|
 | W-Mom                | 0.97 | 5.7E-05 | 1.2E-03 |       6.7E-02  OK|
 | P-Mass               | 0.97 | 2.3E-05 | 1.9E-04 | 13.8  4.0E-02  OK|
 +----------------------+------+---------+---------+------------------+
 | H-Energy             | 0.97 | 1.8E-04 | 2.8E-03 |  5.5  3.5E-02  OK|
 +----------------------+------+---------+---------+------------------+
 | K-TurbKE             | 0.94 | 4.2E-04 | 2.1E-03 |  5.5  3.5E-02  OK|
 | E-Diss.K             | 0.92 | 4.4E-04 | 8.6E-03 |  7.6  1.1E-02  OK|
 +----------------------+------+---------+---------+------------------+

 ======================================================================
 OUTER LOOP ITERATION =  298 (   33) CPU SECONDS = 1.911E+02 (2.128E+01)
 ----------------------------------------------------------------------
 |       Equation       | Rate | RMS Res | Max Res |  Linear Solution |
 +----------------------+------+---------+---------+------------------+
 | U-Mom                | 0.98 | 1.2E-04 | 2.1E-03 |       2.0E-02  OK|
 | V-Mom                | 0.97 | 1.2E-04 | 2.0E-03 |       2.3E-02  OK|
 | W-Mom                | 0.98 | 5.6E-05 | 1.2E-03 |       6.9E-02  OK|
 | P-Mass               | 0.98 | 2.2E-05 | 2.0E-04 | 13.8  4.0E-02  OK|
 +----------------------+------+---------+---------+------------------+
 | H-Energy             | 0.98 | 1.8E-04 | 2.8E-03 |  5.5  3.4E-02  OK|
 +----------------------+------+---------+---------+------------------+
 | K-TurbKE             | 0.94 | 4.0E-04 | 2.0E-03 |  5.5  3.6E-02  OK|
 | E-Diss.K             | 0.92 | 4.1E-04 | 8.0E-03 |  7.6  1.2E-02  OK|
 +----------------------+------+---------+---------+------------------+

 ======================================================================
 OUTER LOOP ITERATION =  299 (   34) CPU SECONDS = 1.917E+02 (2.184E+01)
 ----------------------------------------------------------------------
 |       Equation       | Rate | RMS Res | Max Res |  Linear Solution |
 +----------------------+------+---------+---------+------------------+
 | U-Mom                | 0.98 | 1.2E-04 | 1.9E-03 |       2.0E-02  OK|
 | V-Mom                | 0.98 | 1.1E-04 | 1.5E-03 |       2.3E-02  OK|
 | W-Mom                | 0.98 | 5.5E-05 | 1.1E-03 |       7.1E-02  OK|
 | P-Mass               | 0.98 | 2.2E-05 | 2.0E-04 | 13.8  4.0E-02  OK|
 +----------------------+------+---------+---------+------------------+
 | H-Energy             | 0.99 | 1.8E-04 | 2.9E-03 |  5.5  3.3E-02  OK|
 +----------------------+------+---------+---------+------------------+
 | K-TurbKE             | 0.94 | 3.7E-04 | 1.9E-03 |  5.5  3.6E-02  OK|
 | E-Diss.K             | 0.92 | 3.7E-04 | 7.4E-03 |  7.6  1.2E-02  OK|
 +----------------------+------+---------+---------+------------------+

 ======================================================================
 OUTER LOOP ITERATION =  300 (   35) CPU SECONDS = 1.923E+02 (2.240E+01)
 ----------------------------------------------------------------------
 |       Equation       | Rate | RMS Res | Max Res |  Linear Solution |
 +----------------------+------+---------+---------+------------------+
 | U-Mom                | 0.98 | 1.2E-04 | 1.8E-03 |       2.0E-02  OK|
 | V-Mom                | 0.98 | 1.1E-04 | 1.1E-03 |       2.3E-02  OK|
 | W-Mom                | 0.98 | 5.4E-05 | 1.0E-03 |       7.3E-02  OK|
 | P-Mass               | 0.99 | 2.2E-05 | 2.1E-04 | 13.8  4.0E-02  OK|
 +----------------------+------+---------+---------+------------------+
 | H-Energy             | 0.99 | 1.8E-04 | 3.0E-03 |  5.5  3.3E-02  OK|
 +----------------------+------+---------+---------+------------------+
 | K-TurbKE             | 0.94 | 3.5E-04 | 1.8E-03 |  5.5  3.6E-02  OK|
 | E-Diss.K             | 0.92 | 3.4E-04 | 6.7E-03 |  7.6  1.2E-02  OK|
 +----------------------+------+---------+---------+------------------+

 ======================================================================
 |                        Timescale Information                       |
 ----------------------------------------------------------------------
 |       Equation       |         Type          |      Timescale      |
 +----------------------+-----------------------+---------------------+
 | U-Mom                | Auto Timescale        |     2.01639E-01     |
 | V-Mom                | Auto Timescale        |     2.01639E-01     |
 | W-Mom                | Auto Timescale        |     2.01639E-01     |
 +----------------------+-----------------------+---------------------+
 | H-Energy             | Auto Timescale        |     2.01639E-01     |
 +----------------------+-----------------------+---------------------+
 | K-TurbKE             | Auto Timescale        |     2.01639E-01     |
 | E-Diss.K             | Auto Timescale        |     2.01639E-01     |
 +----------------------+-----------------------+---------------------+

 ======================================================================
 OUTER LOOP ITERATION =  301 (   36) CPU SECONDS = 1.928E+02 (2.295E+01)
 ----------------------------------------------------------------------
 |       Equation       | Rate | RMS Res | Max Res |  Linear Solution |
 +----------------------+------+---------+---------+------------------+
 | U-Mom                | 0.98 | 1.2E-04 | 1.8E-03 |       1.9E-02  OK|
 | V-Mom                | 0.99 | 1.1E-04 | 9.8E-04 |       2.2E-02  OK|
 | W-Mom                | 0.99 | 5.3E-05 | 9.3E-04 |       7.3E-02  OK|
 | P-Mass               | 0.99 | 2.2E-05 | 2.1E-04 | 13.8  3.9E-02  OK|
 +----------------------+------+---------+---------+------------------+
 | H-Energy             | 1.00 | 1.7E-04 | 3.0E-03 |  5.5  3.2E-02  OK|
 +----------------------+------+---------+---------+------------------+
 | K-TurbKE             | 0.94 | 3.3E-04 | 1.6E-03 |  5.5  3.6E-02  OK|
 | E-Diss.K             | 0.91 | 3.1E-04 | 6.0E-03 |  7.6  1.2E-02  OK|
 +----------------------+------+---------+---------+------------------+

 ======================================================================
 OUTER LOOP ITERATION =  302 (   37) CPU SECONDS = 1.934E+02 (2.351E+01)
 ----------------------------------------------------------------------
 |       Equation       | Rate | RMS Res | Max Res |  Linear Solution |
 +----------------------+------+---------+---------+------------------+
 | U-Mom                | 0.98 | 1.2E-04 | 1.7E-03 |       1.9E-02  OK|
 | V-Mom                | 0.99 | 1.1E-04 | 1.0E-03 |       2.2E-02  OK|
 | W-Mom                | 0.99 | 5.3E-05 | 8.4E-04 |       7.5E-02  OK|
 | P-Mass               | 0.99 | 2.1E-05 | 2.1E-04 | 13.8  3.9E-02  OK|
 +----------------------+------+---------+---------+------------------+
 | H-Energy             | 1.00 | 1.8E-04 | 3.0E-03 |  5.5  3.1E-02  OK|
 +----------------------+------+---------+---------+------------------+
 | K-TurbKE             | 0.94 | 3.1E-04 | 1.6E-03 |  5.5  3.6E-02  OK|
 | E-Diss.K             | 0.92 | 2.9E-04 | 5.5E-03 |  7.6  1.2E-02  OK|
 +----------------------+------+---------+---------+------------------+

 ======================================================================
 OUTER LOOP ITERATION =  303 (   38) CPU SECONDS = 1.939E+02 (2.407E+01)
 ----------------------------------------------------------------------
 |       Equation       | Rate | RMS Res | Max Res |  Linear Solution |
 +----------------------+------+---------+---------+------------------+
 | U-Mom                | 0.98 | 1.1E-04 | 1.7E-03 |       1.9E-02  OK|
 | V-Mom                | 0.99 | 1.1E-04 | 9.6E-04 |       2.2E-02  OK|
 | W-Mom                | 0.99 | 5.2E-05 | 7.4E-04 |       7.7E-02  OK|
 | P-Mass               | 0.99 | 2.1E-05 | 2.1E-04 | 13.8  3.9E-02  OK|
 +----------------------+------+---------+---------+------------------+
 | H-Energy             | 1.01 | 1.8E-04 | 3.1E-03 |  5.5  3.1E-02  OK|
 +----------------------+------+---------+---------+------------------+
 | K-TurbKE             | 0.94 | 2.9E-04 | 1.5E-03 |  5.5  3.6E-02  OK|
 | E-Diss.K             | 0.92 | 2.7E-04 | 5.1E-03 |  7.6  1.2E-02  OK|
 +----------------------+------+---------+---------+------------------+

 ======================================================================
 OUTER LOOP ITERATION =  304 (   39) CPU SECONDS = 1.945E+02 (2.463E+01)
 ----------------------------------------------------------------------
 |       Equation       | Rate | RMS Res | Max Res |  Linear Solution |
 +----------------------+------+---------+---------+------------------+
 | U-Mom                | 0.98 | 1.1E-04 | 1.8E-03 |       1.9E-02  OK|
 | V-Mom                | 0.99 | 1.1E-04 | 9.0E-04 |       2.2E-02  OK|
 | W-Mom                | 0.99 | 5.2E-05 | 6.5E-04 |       7.9E-02  OK|
 | P-Mass               | 0.99 | 2.1E-05 | 2.1E-04 | 13.8  3.9E-02  OK|
 +----------------------+------+---------+---------+------------------+
 | H-Energy             | 1.01 | 1.8E-04 | 3.1E-03 |  5.5  3.1E-02  OK|
 +----------------------+------+---------+---------+------------------+
 | K-TurbKE             | 0.94 | 2.7E-04 | 1.4E-03 |  5.5  3.6E-02  OK|
 | E-Diss.K             | 0.92 | 2.4E-04 | 4.7E-03 |  7.6  1.2E-02  OK|
 +----------------------+------+---------+---------+------------------+

 ======================================================================
 OUTER LOOP ITERATION =  305 (   40) CPU SECONDS = 1.951E+02 (2.519E+01)
 ----------------------------------------------------------------------
 |       Equation       | Rate | RMS Res | Max Res |  Linear Solution |
 +----------------------+------+---------+---------+------------------+
 | U-Mom                | 0.98 | 1.1E-04 | 1.8E-03 |       1.9E-02  OK|
 | V-Mom                | 0.99 | 1.1E-04 | 1.0E-03 |       2.2E-02  OK|
 | W-Mom                | 0.99 | 5.1E-05 | 6.5E-04 |       8.1E-02  OK|
 | P-Mass               | 0.99 | 2.1E-05 | 2.0E-04 | 13.8  3.9E-02  OK|
 +----------------------+------+---------+---------+------------------+
 | H-Energy             | 1.01 | 1.8E-04 | 3.1E-03 |  5.5  3.1E-02  OK|
 +----------------------+------+---------+---------+------------------+
 | K-TurbKE             | 0.94 | 2.5E-04 | 1.4E-03 |  5.5  3.5E-02  OK|
 | E-Diss.K             | 0.92 | 2.3E-04 | 4.1E-03 |  7.6  1.2E-02  OK|
 +----------------------+------+---------+---------+------------------+

 ======================================================================
 |                        Timescale Information                       |
 ----------------------------------------------------------------------
 |       Equation       |         Type          |      Timescale      |
 +----------------------+-----------------------+---------------------+
 | U-Mom                | Auto Timescale        |     1.98532E-01     |
 | V-Mom                | Auto Timescale        |     1.98532E-01     |
 | W-Mom                | Auto Timescale        |     1.98532E-01     |
 +----------------------+-----------------------+---------------------+
 | H-Energy             | Auto Timescale        |     1.98532E-01     |
 +----------------------+-----------------------+---------------------+
 | K-TurbKE             | Auto Timescale        |     1.98532E-01     |
 | E-Diss.K             | Auto Timescale        |     1.98532E-01     |
 +----------------------+-----------------------+---------------------+

 ======================================================================
 OUTER LOOP ITERATION =  306 (   41) CPU SECONDS = 1.956E+02 (2.575E+01)
 ----------------------------------------------------------------------
 |       Equation       | Rate | RMS Res | Max Res |  Linear Solution |
 +----------------------+------+---------+---------+------------------+
 | U-Mom                | 0.99 | 1.1E-04 | 1.8E-03 |       1.9E-02  OK|
 | V-Mom                | 0.99 | 1.0E-04 | 1.1E-03 |       2.1E-02  OK|
 | W-Mom                | 0.99 | 5.0E-05 | 6.5E-04 |       8.2E-02  OK|
 | P-Mass               | 0.99 | 2.1E-05 | 2.0E-04 | 13.8  3.8E-02  OK|
 +----------------------+------+---------+---------+------------------+
 | H-Energy             | 1.00 | 1.8E-04 | 3.1E-03 |  5.5  3.0E-02  OK|
 +----------------------+------+---------+---------+------------------+
 | K-TurbKE             | 0.94 | 2.4E-04 | 1.4E-03 |  5.5  3.5E-02  OK|
 | E-Diss.K             | 0.92 | 2.1E-04 | 3.8E-03 |  7.6  1.3E-02  OK|
 +----------------------+------+---------+---------+------------------+

 ======================================================================
 OUTER LOOP ITERATION =  307 (   42) CPU SECONDS = 1.962E+02 (2.632E+01)
 ----------------------------------------------------------------------
 |       Equation       | Rate | RMS Res | Max Res |  Linear Solution |
 +----------------------+------+---------+---------+------------------+
 | U-Mom                | 0.98 | 1.1E-04 | 1.8E-03 |       1.9E-02  OK|
 | V-Mom                | 0.99 | 1.0E-04 | 9.7E-04 |       2.1E-02  OK|
 | W-Mom                | 0.98 | 4.9E-05 | 6.5E-04 |       8.4E-02  OK|
 | P-Mass               | 0.99 | 2.1E-05 | 1.9E-04 | 13.8  3.8E-02  OK|
 +----------------------+------+---------+---------+------------------+
 | H-Energy             | 1.00 | 1.8E-04 | 3.1E-03 |  5.5  3.0E-02  OK|
 +----------------------+------+---------+---------+------------------+
 | K-TurbKE             | 0.94 | 2.2E-04 | 1.3E-03 |  5.5  3.5E-02  OK|
 | E-Diss.K             | 0.93 | 1.9E-04 | 3.4E-03 |  7.6  1.3E-02  OK|
 +----------------------+------+---------+---------+------------------+

 ======================================================================
 OUTER LOOP ITERATION =  308 (   43) CPU SECONDS = 1.967E+02 (2.688E+01)
 ----------------------------------------------------------------------
 |       Equation       | Rate | RMS Res | Max Res |  Linear Solution |
 +----------------------+------+---------+---------+------------------+
 | U-Mom                | 0.98 | 1.0E-04 | 1.8E-03 |       1.9E-02  OK|
 | V-Mom                | 0.99 | 1.0E-04 | 8.1E-04 |       2.1E-02  OK|
 | W-Mom                | 0.98 | 4.8E-05 | 6.5E-04 |       8.6E-02  OK|
 | P-Mass               | 0.99 | 2.0E-05 | 1.9E-04 | 13.8  3.9E-02  OK|
 +----------------------+------+---------+---------+------------------+
[...]
 +----------------------+------+---------+---------+------------------+
 | H-Energy             | 0.96 | 1.2E-04 | 1.8E-03 |  5.5  2.8E-02  OK|
 +----------------------+------+---------+---------+------------------+
 | K-TurbKE             | 0.97 | 1.1E-04 | 7.1E-04 |  5.5  2.9E-02  OK|
 | E-Diss.K             | 1.00 | 1.1E-04 | 1.5E-03 |  7.6  1.5E-02  OK|
 +----------------------+------+---------+---------+------------------+

 ======================================================================
 OUTER LOOP ITERATION =  324 (   59) CPU SECONDS = 2.058E+02 (3.593E+01)
 ----------------------------------------------------------------------
 |       Equation       | Rate | RMS Res | Max Res |  Linear Solution |
 +----------------------+------+---------+---------+------------------+
 | U-Mom                | 0.99 | 8.0E-05 | 1.1E-03 |       2.1E-02  OK|
 | V-Mom                | 0.99 | 8.2E-05 | 1.2E-03 |       2.2E-02  OK|
 | W-Mom                | 0.97 | 3.1E-05 | 7.1E-04 |       1.5E-01  ok|
 | P-Mass               | 0.99 | 1.8E-05 | 1.4E-04 | 13.8  4.2E-02  OK|
 +----------------------+------+---------+---------+------------------+
 | H-Energy             | 0.96 | 1.1E-04 | 1.7E-03 |  5.5  2.8E-02  OK|
 +----------------------+------+---------+---------+------------------+
 | K-TurbKE             | 0.98 | 1.1E-04 | 6.9E-04 |  5.5  3.0E-02  OK|
 | E-Diss.K             | 1.01 | 1.1E-04 | 1.5E-03 |  7.6  1.5E-02  OK|
 +----------------------+------+---------+---------+------------------+

 ======================================================================
 OUTER LOOP ITERATION =  325 (   60) CPU SECONDS = 2.064E+02 (3.649E+01)
 ----------------------------------------------------------------------
 |       Equation       | Rate | RMS Res | Max Res |  Linear Solution |
 +----------------------+------+---------+---------+------------------+
 | U-Mom                | 0.99 | 7.9E-05 | 1.2E-03 |       2.1E-02  OK|
 | V-Mom                | 0.99 | 8.1E-05 | 1.2E-03 |       2.3E-02  OK|
 | W-Mom                | 0.97 | 3.0E-05 | 7.2E-04 |       1.5E-01  ok|
 | P-Mass               | 0.99 | 1.8E-05 | 1.4E-04 | 13.8  4.2E-02  OK|
 +----------------------+------+---------+---------+------------------+
 | H-Energy             | 0.96 | 1.1E-04 | 1.5E-03 |  5.5  2.9E-02  OK|
 +----------------------+------+---------+---------+------------------+
 | K-TurbKE             | 0.98 | 1.0E-04 | 6.8E-04 |  5.5  3.0E-02  OK|
 | E-Diss.K             | 1.01 | 1.1E-04 | 1.5E-03 |  7.6  1.5E-02  OK|
 +----------------------+------+---------+---------+------------------+

 ======================================================================
 |                        Timescale Information                       |
 ----------------------------------------------------------------------
 |       Equation       |         Type          |      Timescale      |
 +----------------------+-----------------------+---------------------+
 | U-Mom                | Auto Timescale        |     1.87751E-01     |
 | V-Mom                | Auto Timescale        |     1.87751E-01     |
 | W-Mom                | Auto Timescale        |     1.87751E-01     |
 +----------------------+-----------------------+---------------------+
 | H-Energy             | Auto Timescale        |     1.87751E-01     |
 +----------------------+-----------------------+---------------------+
 | K-TurbKE             | Auto Timescale        |     1.87751E-01     |
 | E-Diss.K             | Auto Timescale        |     1.87751E-01     |
 +----------------------+-----------------------+---------------------+

 ======================================================================
 OUTER LOOP ITERATION =  326 (   61) CPU SECONDS = 2.069E+02 (3.705E+01)
 ----------------------------------------------------------------------
 |       Equation       | Rate | RMS Res | Max Res |  Linear Solution |
 +----------------------+------+---------+---------+------------------+
 | U-Mom                | 0.99 | 7.8E-05 | 1.2E-03 |       2.1E-02  OK|
 | V-Mom                | 0.99 | 8.0E-05 | 1.3E-03 |       2.2E-02  OK|
 | W-Mom                | 0.97 | 2.9E-05 | 7.3E-04 |       1.5E-01  ok|
 | P-Mass               | 1.00 | 1.8E-05 | 1.4E-04 | 13.8  4.1E-02  OK|
 +----------------------+------+---------+---------+------------------+
 | H-Energy             | 0.96 | 1.0E-04 | 1.5E-03 |  5.5  2.9E-02  OK|
 +----------------------+------+---------+---------+------------------+
 | K-TurbKE             | 0.98 | 1.0E-04 | 6.6E-04 |  5.5  2.9E-02  OK|
 | E-Diss.K             | 1.00 | 1.2E-04 | 1.5E-03 |  7.6  1.5E-02  OK|
 +----------------------+------+---------+---------+------------------+

 ======================================================================
 OUTER LOOP ITERATION =  327 (   62) CPU SECONDS = 2.075E+02 (3.761E+01)
 ----------------------------------------------------------------------
 |       Equation       | Rate | RMS Res | Max Res |  Linear Solution |
 +----------------------+------+---------+---------+------------------+
 | U-Mom                | 0.99 | 7.7E-05 | 1.2E-03 |       2.1E-02  OK|
 | V-Mom                | 0.99 | 7.9E-05 | 1.3E-03 |       2.2E-02  OK|
 | W-Mom                | 0.97 | 2.9E-05 | 7.4E-04 |       1.6E-01  ok|
 | P-Mass               | 0.99 | 1.7E-05 | 1.3E-04 | 13.8  4.1E-02  OK|
 +----------------------+------+---------+---------+------------------+
 | H-Energy             | 0.96 | 9.8E-05 | 1.4E-03 |  5.5  2.9E-02  OK|
 +----------------------+------+---------+---------+------------------+
 | K-TurbKE             | 0.98 | 9.9E-05 | 6.4E-04 |  5.5  3.0E-02  OK|
 | E-Diss.K             | 1.01 | 1.2E-04 | 1.5E-03 |  7.6  1.5E-02  OK|
 +----------------------+------+---------+---------+------------------+
                   
 CFD Solver finished: Wed Dec  5 14:16:49 2018
 CFD Solver wall clock seconds: 3.4518E+01

 ======================================================================
              Termination and Interrupt Condition Summary
 ======================================================================
    
 CFD Solver: All target criteria reached
   (Equation residuals)

 ======================================================================
              Boundary Flow and Total Source Term Summary
 ======================================================================

 +--------------------------------------------------------------------+
 |                               U-Mom                                |
 +--------------------------------------------------------------------+
 Boundary         : Default Domain Default                  2.1919E+01
 Boundary         : in1                                     6.0735E-05
 Boundary         : in2                                    -6.0478E-05
 Boundary         : out                                    -2.3706E+01
                                                           -----------
 Domain Imbalance :                                        -1.7873E+00

 +--------------------------------------------------------------------+
 |                               V-Mom                                |
 +--------------------------------------------------------------------+
 Boundary         : Default Domain Default                 -3.8619E+01
 Boundary         : in1                                     5.9732E+04
 Boundary         : in2                                    -5.9698E+04
 Boundary         : out                                     3.7708E+00
                                                           -----------
 Domain Imbalance :                                        -3.4249E-01

 +--------------------------------------------------------------------+
 |                               W-Mom                                |
 +--------------------------------------------------------------------+
 Boundary         : Default Domain Default                 -1.2113E+04
 Boundary         : in1                                    -1.8703E-05
 Boundary         : in2                                    -9.1501E-06
 Boundary         : out                                     1.2145E+04
                                                           -----------
 Domain Imbalance :                                         3.2552E+01

 +--------------------------------------------------------------------+
 |                               P-Mass                               |
 +--------------------------------------------------------------------+
 Boundary         : in1                                     1.5000E+03
 Boundary         : in2                                     1.5000E+03
 Boundary         : out                                    -2.9999E+03
                                                           -----------
 Domain Imbalance :                                         1.2598E-01

 +--------------------------------------------------------------------+
 |                              H-Energy                              |
 +--------------------------------------------------------------------+
 Boundary         : in1                                     1.0569E+08
 Boundary         : in2                                    -8.2484E+07
 Boundary         : out                                    -2.3087E+07
                                                           -----------
 Domain Imbalance :                                         1.2185E+05


 +--------------------------------------------------------------------+
 |                     Normalised Imbalance Summary                   |
 +--------------------------------------------------------------------+
 |       Equation       |      Maximum Flow     |     Imbalance (%)   |
 +--------------------------------------------------------------------+
 | U-Mom                |       5.9732E+04      |       -0.0030       |
 | V-Mom                |       5.9732E+04      |       -0.0006       |
 | W-Mom                |       5.9732E+04      |        0.0545       |
 | P-Mass               |       2.9999E+03      |        0.0042       |
 +----------------------+-----------------------+---------------------+
 | H-Energy             |       1.0569E+08      |        0.1153       |
 +----------------------+-----------------------+---------------------+

 ======================================================================
                     Wall Force and Moment Summary
 ======================================================================
                                                                          
 Notes:
 1. Pressure integrals exclude the reference pressure.  To include
    it, set the expert parameter 'include pref in forces = t'.


 +--------------------------------------------------------------------+
 |                      Pressure Force On Walls                       |
 +--------------------------------------------------------------------+
                                    X-Comp.      Y-Comp.      Z-Comp.

 Domain Group: Default Domain

 Default Domain Default          -1.9688E+01   3.7707E+01   1.2192E+04
                                  -----------  -----------  -----------
 Domain Group Totals :           -1.9688E+01   3.7707E+01   1.2192E+04


 +--------------------------------------------------------------------+
 |                       Viscous Force On Walls                       |
 +--------------------------------------------------------------------+
                                    X-Comp.      Y-Comp.      Z-Comp.

 Domain Group: Default Domain

 Default Domain Default          -2.1719E+00   9.7938E-01  -7.9660E+01
                                  -----------  -----------  -----------
 Domain Group Totals :           -2.1719E+00   9.7938E-01  -7.9660E+01


 +--------------------------------------------------------------------+
 |                      Pressure Moment On Walls                      |
 +--------------------------------------------------------------------+
                                    X-Comp.      Y-Comp.      Z-Comp.

 Domain Group: Default Domain

 Default Domain Default          -2.3875E+01   5.7745E+01  -1.0189E+05
                                  -----------  -----------  -----------
 Domain Group Totals :           -2.3875E+01   5.7745E+01  -1.0189E+05


 +--------------------------------------------------------------------+
 |                       Viscous Moment On Walls                      |
 +--------------------------------------------------------------------+
                                    X-Comp.      Y-Comp.      Z-Comp.

 Domain Group: Default Domain

 Default Domain Default          -9.0520E-01  -3.3523E+00  -5.5434E+03
                                  -----------  -----------  -----------
 Domain Group Totals :           -9.0520E-01  -3.3523E+00  -5.5434E+03


 +--------------------------------------------------------------------+
 |                   Locations of Maximum Residuals                   |
 +--------------------------------------------------------------------+
 |       Equation       |      Domain Name      |     Node Number     |
 +--------------------------------------------------------------------+
 | U-Mom                | Default Domain        |          13909      |
 | V-Mom                | Default Domain        |          13909      |
 | W-Mom                | Default Domain        |          13909      |
 | P-Mass               | Default Domain        |          13912      |
 +----------------------+-----------------------+---------------------+
 | H-Energy             | Default Domain        |          14011      |
 +----------------------+-----------------------+---------------------+
 | K-TurbKE             | Default Domain        |           1608      |
 | E-Diss.K             | Default Domain        |          13974      |
 +----------------------+-----------------------+---------------------+

 ======================================================================
 |                     False Transient Information                    |
 +--------------------------------------------------------------------+
 |       Equation       |         Type          | Elapsed Pseudo-Time |
 +--------------------------------------------------------------------+
 | U-Mom                | Auto Timescale        |     1.27640E+01     |
 | V-Mom                | Auto Timescale        |     1.27640E+01     |
 | W-Mom                | Auto Timescale        |     1.27640E+01     |
 +----------------------+-----------------------+---------------------+
 | H-Energy             | Auto Timescale        |     1.27640E+01     |
 +----------------------+-----------------------+---------------------+
 | K-TurbKE             | Auto Timescale        |     1.27640E+01     |
 | E-Diss.K             | Auto Timescale        |     1.27640E+01     |
 +----------------------+-----------------------+---------------------+

 +--------------------------------------------------------------------+
 |                     Average Scale Information                      |
 +--------------------------------------------------------------------+

 Domain Name : Default Domain
     Global Length                                         = 3.2195E+00
     Minimum Extent                                        = 4.0000E+00
     Maximum Extent                                        = 6.0000E+00
     Density                                               = 9.9700E+02
     Dynamic Viscosity                                     = 8.8990E-04
     Velocity                                              = 5.4202E+00
     Advection Time                                        = 5.9397E-01
     Reynolds Number                                       = 1.9550E+07
     Thermal Conductivity                                  = 6.0690E-01
     Specific Heat Capacity at Constant Pressure           = 4.1817E+03
     Prandtl Number                                        = 6.1316E+00
     Temperature Range                                     = 3.0032E+01

 +--------------------------------------------------------------------+
 |                     Variable Range Information                     |
 +--------------------------------------------------------------------+

 Domain Name : Default Domain
 +--------------------------------------------------------------------+
 |      Variable Name                         |    min    |    max    |
 +--------------------------------------------------------------------+
 | Density                                    |  9.97E+02 |  9.97E+02 |
 | Specific Heat Capacity at Constant Pressure|  4.18E+03 |  4.18E+03 |
 | Dynamic Viscosity                          |  8.90E-04 |  8.90E-04 |
 | Thermal Conductivity                       |  6.07E-01 |  6.07E-01 |
 | Static Entropy                             | -1.89E+02 |  2.30E+02 |
 | Velocity u                                 | -6.55E+00 |  6.55E+00 |
 | Velocity v                                 | -6.82E+00 |  6.84E+00 |
 | Velocity w                                 | -5.31E+00 |  1.79E+00 |
 | Pressure                                   | -9.73E+03 |  7.52E+04 |
 | Turbulence Kinetic Energy                  |  1.15E-04 |  4.46E+00 |
 | Turbulence Eddy Dissipation                |  3.44E-04 |  2.20E+02 |
 | Eddy Viscosity                             |  1.22E-03 |  3.28E+02 |
 | Temperature                                |  2.85E+02 |  3.15E+02 |
 | Static Enthalpy                            | -5.51E+04 |  7.05E+04 |
 +--------------------------------------------------------------------+

 +--------------------------------------------------------------------+
 |               CPU Requirements of Numerical Solution               |
 +--------------------------------------------------------------------+

 Subsystem Name                  Discretization       Linear Solution
                                (secs.   %total)     (secs.   %total) 
 ----------------------------------------------------------------------
 Momentum and Mass              1.18E+01  29.0 %     3.87E+00   9.5 %
 Heat Transfer                  3.96E+00   9.7 %     1.33E+00   3.3 %
 TurbKE and Diss.K              6.06E+00  14.9 %     2.99E+00   7.4 %
                                -------- -------     --------  ------
 Subsystem Summary              2.18E+01  53.6 %     8.20E+00  20.1 %

 File Reading                   2.90E-02    0.1 %
 Search Calculations            9.99E-04    0.0 %
 Variable Updates               4.17E+00   10.2 %
 File Writing                   2.03E-01    0.5 %
 Miscellaneous                  6.28E+00   15.4 %
                                --------
 Total                          4.07E+01

 +--------------------------------------------------------------------+
 |                   Job Information at End of Run                    |
 +--------------------------------------------------------------------+

 Host computer:  ENPC-LAB137 (PID:11272)

 Job finished:   Wed Dec  5 14:16:51 2018

 Total wall clock time: 4.073E+01 seconds
             or: (          0:         0:         0:    40.727 )
                 (       Days:     Hours:   Minutes:   Seconds )

End of solution stage.

 +--------------------------------------------------------------------+
 | The results from this run of the ANSYS CFX Solver have been        |
 | written to                                                         |
 | H:/dos/CFD/CW/CFD-Static-Mixer/StaticMixerDX_pending/dp4_CFX_Solu- |
 | tion/Fluid Flow CFX_006.res                                        |
 +--------------------------------------------------------------------+


 +--------------------------------------------------------------------+
 | For CFX runs launched from Workbench, the final locations of       |
 | directories and files generated may differ from those shown.       |
 +--------------------------------------------------------------------+


This run of the ANSYS CFX Solver has finished.
